version 2
run General-0-20210308-16:22:24-11566
attr configname General
attr datetime 20210308-16:22:24
attr experiment General
attr inifile simulations/dtnsim_demo/traffic300.ini
attr iterationvars ""
attr iterationvarsf ""
attr measurement ""
attr network src.dtnsim
attr processid 11566
attr repetition 0
attr replication #0
attr resultdir results
attr runnumber 0
attr seedset 0
param dtnsim.node[*].dtn.sdrSize 1024
param dtnsim.nodesNumber 7
param dtnsim.node[1..5].icon "\"device\""
param dtnsim.node[6].icon "\"satellite\""
param dtnsim.node[7].icon "\"device\""
param dtnsim.node[*].dtn.routing "\"cgrModelRev17\""
param dtnsim.central.contactsFile "\"/home/omn/git/dtnsim/simulations/dtnsim_demo/contactPlan/cPlan.txt\""
param dtnsim.node[*].dtn.routingType "\"routeListType:allPaths-firstEnding,volumeAware:allContacts,extensionBlock:on,contactPlan:global\""
param dtnsim.node[*].dtn.printRoutingDebug true
param dtnsim.node[1].app.enable true
param dtnsim.node[1].app.bundlesNumber "\"3, 4, 7, 4, 2, 9, 8, 1\""
param dtnsim.node[1].app.start "\"7201, 36001, 37801, 43201, 48601, 50401, 54001, 79201\""
param dtnsim.node[1].app.destinationEid "\"7, 7, 7, 7, 7, 7, 7, 7\""
param dtnsim.node[1].app.size "\"128, 128, 128, 128, 128, 128, 128, 128\""
param dtnsim.node[2].app.enable true
param dtnsim.node[2].app.bundlesNumber "\"1, 2, 5, 2, 8, 2, 9, 7, 4\""
param dtnsim.node[2].app.start "\"1, 1801, 9001, 10801, 12601, 39601, 73801, 75601, 82801\""
param dtnsim.node[2].app.destinationEid "\"7, 7, 7, 7, 7, 7, 7, 7, 7\""
param dtnsim.node[2].app.size "\"128, 128, 128, 128, 128, 128, 128, 128, 128\""
param dtnsim.node[3].app.enable true
param dtnsim.node[3].app.bundlesNumber "\"2, 2, 7, 253, 4, 2\""
param dtnsim.node[3].app.start "\"5401, 25201, 30601, 41401, 57601, 70201\""
param dtnsim.node[3].app.destinationEid "\"7, 7, 7, 7, 7, 7\""
param dtnsim.node[3].app.size "\"128, 128, 128, 128, 128, 128\""
param dtnsim.node[4].app.enable true
param dtnsim.node[4].app.bundlesNumber "\"1, 3, 5, 2, 6\""
param dtnsim.node[4].app.start "\"14401, 61201, 68401, 77401, 84601\""
param dtnsim.node[4].app.destinationEid "\"7, 7, 7, 7, 7\""
param dtnsim.node[4].app.size "\"128, 128, 128, 128, 128\""
param dtnsim.node[5].app.enable true
param dtnsim.node[5].app.bundlesNumber "\"6, 4, 8, 5, 5, 1, 2, 2, 3, 2, 7\""
param dtnsim.node[5].app.start "\"16201, 18001, 19801, 28801, 34201, 52201, 55801, 63001, 64801, 72001, 81001\""
param dtnsim.node[5].app.destinationEid "\"7, 7, 7, 7, 7, 7, 7, 7, 7, 7, 7\""
param dtnsim.node[5].app.size "\"128, 128, 128, 128, 128, 128, 128, 128, 128, 128, 128\""
param dtnsim.node[6].app.enable true
param dtnsim.node[6].app.bundlesNumber "\"2, 4, 5, 2, 1, 7, 2, 8, 7\""
param dtnsim.node[6].app.start "\"3601, 21601, 23401, 27001, 32401, 45001, 46801, 59401, 66601\""
param dtnsim.node[6].app.destinationEid "\"7, 7, 7, 7, 7, 7, 7, 7, 7\""
param dtnsim.node[6].app.size "\"128, 128, 128, 128, 128, 128, 128, 128, 128\""

vector 0 dtnsim.node[1].dtn sdrBundleStored:vector ETV
attr interpolationmode none
attr source sdrBundleStored
attr title "sdrBundleStored, vector"
vector 1 dtnsim.node[1].dtn sdrBytesStored:vector ETV
attr interpolationmode none
attr source sdrBytesStored
attr title "sdrBytesStored, vector"
vector 2 dtnsim.node[2].dtn sdrBundleStored:vector ETV
attr interpolationmode none
attr source sdrBundleStored
attr title "sdrBundleStored, vector"
vector 3 dtnsim.node[2].dtn sdrBytesStored:vector ETV
attr interpolationmode none
attr source sdrBytesStored
attr title "sdrBytesStored, vector"
vector 4 dtnsim.node[3].dtn sdrBundleStored:vector ETV
attr interpolationmode none
attr source sdrBundleStored
attr title "sdrBundleStored, vector"
vector 5 dtnsim.node[3].dtn sdrBytesStored:vector ETV
attr interpolationmode none
attr source sdrBytesStored
attr title "sdrBytesStored, vector"
vector 6 dtnsim.node[4].dtn sdrBundleStored:vector ETV
attr interpolationmode none
attr source sdrBundleStored
attr title "sdrBundleStored, vector"
vector 7 dtnsim.node[4].dtn sdrBytesStored:vector ETV
attr interpolationmode none
attr source sdrBytesStored
attr title "sdrBytesStored, vector"
vector 8 dtnsim.node[5].dtn sdrBundleStored:vector ETV
attr interpolationmode none
attr source sdrBundleStored
attr title "sdrBundleStored, vector"
vector 9 dtnsim.node[5].dtn sdrBytesStored:vector ETV
attr interpolationmode none
attr source sdrBytesStored
attr title "sdrBytesStored, vector"
vector 10 dtnsim.node[6].dtn sdrBundleStored:vector ETV
attr interpolationmode none
attr source sdrBundleStored
attr title "sdrBundleStored, vector"
vector 11 dtnsim.node[6].dtn sdrBytesStored:vector ETV
attr interpolationmode none
attr source sdrBytesStored
attr title "sdrBytesStored, vector"
vector 12 dtnsim.node[7].dtn sdrBundleStored:vector ETV
attr interpolationmode none
attr source sdrBundleStored
attr title "sdrBundleStored, vector"
vector 13 dtnsim.node[7].dtn sdrBytesStored:vector ETV
attr interpolationmode none
attr source sdrBytesStored
attr title "sdrBytesStored, vector"
vector 14 dtnsim.node[2].dtn routeCgrDijkstraCalls:vector ETV
attr interpolationmode none
attr source routeCgrDijkstraCalls
attr title "routeCgrDijkstraCalls, vector"
vector 15 dtnsim.node[2].dtn routeCgrDijkstraLoops:vector ETV
attr interpolationmode none
attr source routeCgrDijkstraLoops
attr title "routeCgrDijkstraLoops, vector"
vector 16 dtnsim.node[2].dtn routeCgrRouteTableEntriesCreated:vector ETV
attr interpolationmode none
attr source routeCgrRouteTableEntriesCreated
attr title "routeCgrRouteTableEntriesCreated, vector"
vector 17 dtnsim.node[2].dtn routeCgrRouteTableEntriesExplored:vector ETV
attr interpolationmode none
attr source routeCgrRouteTableEntriesExplored
attr title "routeCgrRouteTableEntriesExplored, vector"
vector 18 dtnsim.node[2].dtn dtnCgrCalls:vector ETV
attr interpolationmode none
attr source dtnCgrCalls
attr title "dtnCgrCalls, vector"
vector 19 dtnsim.node[2].dtn sdrBundlesDeleted:vector ETV
attr interpolationmode none
attr source sdrBundlesDeleted
attr title "sdrBundlesDeleted, vector"
vector 20 dtnsim.node[1].dtn routeCgrDijkstraCalls:vector ETV
attr interpolationmode none
attr source routeCgrDijkstraCalls
attr title "routeCgrDijkstraCalls, vector"
vector 21 dtnsim.node[1].dtn routeCgrDijkstraLoops:vector ETV
attr interpolationmode none
attr source routeCgrDijkstraLoops
attr title "routeCgrDijkstraLoops, vector"
vector 22 dtnsim.node[1].dtn routeCgrRouteTableEntriesCreated:vector ETV
attr interpolationmode none
attr source routeCgrRouteTableEntriesCreated
attr title "routeCgrRouteTableEntriesCreated, vector"
vector 23 dtnsim.node[1].dtn routeCgrRouteTableEntriesExplored:vector ETV
attr interpolationmode none
attr source routeCgrRouteTableEntriesExplored
attr title "routeCgrRouteTableEntriesExplored, vector"
vector 24 dtnsim.node[1].dtn dtnCgrCalls:vector ETV
attr interpolationmode none
attr source dtnCgrCalls
attr title "dtnCgrCalls, vector"
vector 25 dtnsim.node[1].dtn sdrBundlesDeleted:vector ETV
attr interpolationmode none
attr source sdrBundlesDeleted
attr title "sdrBundlesDeleted, vector"
vector 26 dtnsim.node[5].dtn routeCgrDijkstraCalls:vector ETV
attr interpolationmode none
attr source routeCgrDijkstraCalls
attr title "routeCgrDijkstraCalls, vector"
vector 27 dtnsim.node[5].dtn routeCgrDijkstraLoops:vector ETV
attr interpolationmode none
attr source routeCgrDijkstraLoops
attr title "routeCgrDijkstraLoops, vector"
vector 28 dtnsim.node[5].dtn routeCgrRouteTableEntriesCreated:vector ETV
attr interpolationmode none
attr source routeCgrRouteTableEntriesCreated
attr title "routeCgrRouteTableEntriesCreated, vector"
vector 29 dtnsim.node[5].dtn routeCgrRouteTableEntriesExplored:vector ETV
attr interpolationmode none
attr source routeCgrRouteTableEntriesExplored
attr title "routeCgrRouteTableEntriesExplored, vector"
vector 30 dtnsim.node[5].dtn dtnCgrCalls:vector ETV
attr interpolationmode none
attr source dtnCgrCalls
attr title "dtnCgrCalls, vector"
vector 31 dtnsim.node[5].dtn sdrBundlesDeleted:vector ETV
attr interpolationmode none
attr source sdrBundlesDeleted
attr title "sdrBundlesDeleted, vector"
vector 32 dtnsim.node[6].dtn routeCgrDijkstraCalls:vector ETV
attr interpolationmode none
attr source routeCgrDijkstraCalls
attr title "routeCgrDijkstraCalls, vector"
vector 33 dtnsim.node[6].dtn routeCgrDijkstraLoops:vector ETV
attr interpolationmode none
attr source routeCgrDijkstraLoops
attr title "routeCgrDijkstraLoops, vector"
vector 34 dtnsim.node[6].dtn routeCgrRouteTableEntriesCreated:vector ETV
attr interpolationmode none
attr source routeCgrRouteTableEntriesCreated
attr title "routeCgrRouteTableEntriesCreated, vector"
vector 35 dtnsim.node[6].dtn routeCgrRouteTableEntriesExplored:vector ETV
attr interpolationmode none
attr source routeCgrRouteTableEntriesExplored
attr title "routeCgrRouteTableEntriesExplored, vector"
vector 36 dtnsim.node[6].dtn dtnCgrCalls:vector ETV
attr interpolationmode none
attr source dtnCgrCalls
attr title "dtnCgrCalls, vector"
vector 37 dtnsim.node[6].dtn sdrBundlesDeleted:vector ETV
attr interpolationmode none
attr source sdrBundlesDeleted
attr title "sdrBundlesDeleted, vector"
vector 38 dtnsim.node[7].dtn dtnBundleSentToAppHopCount:vector ETV
attr interpolationmode none
attr source dtnBundleSentToAppHopCount
attr title "dtnBundleSentToAppHopCount, vector"
vector 39 dtnsim.node[3].dtn routeCgrDijkstraCalls:vector ETV
attr interpolationmode none
attr source routeCgrDijkstraCalls
attr title "routeCgrDijkstraCalls, vector"
vector 40 dtnsim.node[3].dtn routeCgrDijkstraLoops:vector ETV
attr interpolationmode none
attr source routeCgrDijkstraLoops
attr title "routeCgrDijkstraLoops, vector"
vector 41 dtnsim.node[3].dtn routeCgrRouteTableEntriesCreated:vector ETV
attr interpolationmode none
attr source routeCgrRouteTableEntriesCreated
attr title "routeCgrRouteTableEntriesCreated, vector"
vector 42 dtnsim.node[3].dtn routeCgrRouteTableEntriesExplored:vector ETV
attr interpolationmode none
attr source routeCgrRouteTableEntriesExplored
attr title "routeCgrRouteTableEntriesExplored, vector"
vector 43 dtnsim.node[3].dtn dtnCgrCalls:vector ETV
attr interpolationmode none
attr source dtnCgrCalls
attr title "dtnCgrCalls, vector"
vector 44 dtnsim.node[3].dtn sdrBundlesDeleted:vector ETV
attr interpolationmode none
attr source sdrBundlesDeleted
attr title "sdrBundlesDeleted, vector"
vector 45 dtnsim.node[4].dtn routeCgrDijkstraCalls:vector ETV
attr interpolationmode none
attr source routeCgrDijkstraCalls
attr title "routeCgrDijkstraCalls, vector"
vector 46 dtnsim.node[4].dtn routeCgrDijkstraLoops:vector ETV
attr interpolationmode none
attr source routeCgrDijkstraLoops
attr title "routeCgrDijkstraLoops, vector"
vector 47 dtnsim.node[4].dtn routeCgrRouteTableEntriesCreated:vector ETV
attr interpolationmode none
attr source routeCgrRouteTableEntriesCreated
attr title "routeCgrRouteTableEntriesCreated, vector"
vector 48 dtnsim.node[4].dtn routeCgrRouteTableEntriesExplored:vector ETV
attr interpolationmode none
attr source routeCgrRouteTableEntriesExplored
attr title "routeCgrRouteTableEntriesExplored, vector"
vector 49 dtnsim.node[4].dtn dtnCgrCalls:vector ETV
attr interpolationmode none
attr source dtnCgrCalls
attr title "dtnCgrCalls, vector"
vector 50 dtnsim.node[4].dtn sdrBundlesDeleted:vector ETV
attr interpolationmode none
attr source sdrBundlesDeleted
attr title "sdrBundlesDeleted, vector"
0	0	0	0
0	30	1	1
0	32	1	0
0	63	1801	1
0	65	1801	0
0	88	1801.000000128	1
0	89	1801.000000128	0
0	193	7201	1
0	194	7201	2
0	195	7201	3
0	197	7201	2
0	216	7201.000000128	1
0	235	7201.000000256	0
0	270	9001	1
0	272	9001	0
0	295	9001.000000128	1
0	296	9001.000000128	0
0	320	9001.000000256	1
0	321	9001.000000256	0
0	345	9001.000000384	1
0	346	9001.000000384	0
0	370	9001.000000512	1
0	371	9001.000000512	0
0	403	10801	1
0	405	10801	0
0	428	10801.000000128	1
0	429	10801.000000128	0
0	473	12601	1
0	475	12601	0
0	498	12601.000000128	1
0	499	12601.000000128	0
0	523	12601.000000256	1
0	524	12601.000000256	0
0	548	12601.000000384	1
0	549	12601.000000384	0
0	573	12601.000000512	1
0	574	12601.000000512	0
0	598	12601.00000064	1
0	599	12601.00000064	0
0	623	12601.000000768	1
0	624	12601.000000768	0
0	648	12601.000000896	1
0	649	12601.000000896	0
0	1470	36001	1
0	1471	36001	2
0	1472	36001	3
0	1473	36001	4
0	1475	36001	3
0	1494	36001.000000128	2
0	1513	36001.000000256	1
0	1532	36001.000000384	0
0	1561	37801	1
0	1562	37801	2
0	1563	37801	3
0	1564	37801	4
0	1565	37801	5
0	1566	37801	6
0	1567	37801	7
0	1569	37801	6
0	1588	37801.000000128	5
0	1607	37801.000000256	4
0	1626	37801.000000384	3
0	1645	37801.000000512	2
0	1664	37801.00000064	1
0	1683	37801.000000768	0
0	1712	39601	1
0	1714	39601	0
0	1737	39601.000000128	1
0	1738	39601.000000128	0
0	2477	43201	1
0	2478	43201	2
0	2479	43201	3
0	2480	43201	4
0	2482	43201	3
0	2501	43201.000000128	2
0	2520	43201.000000256	1
0	2539	43201.000000384	0
0	2639	48601	1
0	2640	48601	2
0	2642	48601	1
0	2661	48601.000000128	0
0	2692	50401	1
0	2693	50401	2
0	2694	50401	3
0	2695	50401	4
0	2696	50401	5
0	2697	50401	6
0	2698	50401	7
0	2699	50401	8
0	2700	50401	8
0	2702	50401	7
0	2721	50401.000000128	6
0	2740	50401.000000256	5
0	2759	50401.000000384	4
0	2778	50401.000000512	3
0	2797	50401.00000064	2
0	2816	50401.000000768	1
0	2835	50401.000000896	0
0	2883	54001	1
0	2884	54001	2
0	2885	54001	3
0	2886	54001	4
0	2887	54001	5
0	2888	54001	6
0	2889	54001	7
0	2890	54001	8
0	2892	54001	7
0	2911	54001.000000128	6
0	2930	54001.000000256	5
0	2949	54001.000000384	4
0	2968	54001.000000512	3
0	2987	54001.00000064	2
0	3006	54001.000000768	1
0	3025	54001.000000896	0
0	3680	73801	1
0	3682	73801	0
0	3705	73801.000000128	1
0	3706	73801.000000128	0
0	3730	73801.000000256	1
0	3731	73801.000000256	0
0	3755	73801.000000384	1
0	3756	73801.000000384	0
0	3780	73801.000000512	1
0	3781	73801.000000512	0
0	3805	73801.00000064	1
0	3806	73801.00000064	0
0	3830	73801.000000768	1
0	3831	73801.000000768	0
0	3855	73801.000000896	1
0	3856	73801.000000896	0
0	3898	75601	1
0	3900	75601	0
0	3923	75601.000000128	1
0	3924	75601.000000128	0
0	3948	75601.000000256	1
0	3949	75601.000000256	0
0	3973	75601.000000384	1
0	3974	75601.000000384	0
0	3998	75601.000000512	1
0	3999	75601.000000512	0
0	4023	75601.00000064	1
0	4024	75601.00000064	0
0	4048	75601.000000768	1
0	4049	75601.000000768	0
0	4121	79201	1
0	4123	79201	0
0	4258	82801	1
0	4260	82801	0
0	4283	82801.000000128	1
0	4284	82801.000000128	0
0	4308	82801.000000256	1
0	4309	82801.000000256	0
0	4333	82801.000000384	1
0	4334	82801.000000384	0
0	4502	86400	0
1	0	0	0
1	30	1	128
1	32	1	0
1	63	1801	128
1	65	1801	0
1	88	1801.000000128	128
1	89	1801.000000128	0
1	193	7201	128
1	194	7201	256
1	195	7201	384
1	197	7201	256
1	216	7201.000000128	128
1	235	7201.000000256	0
1	270	9001	128
1	272	9001	0
1	295	9001.000000128	128
1	296	9001.000000128	0
1	320	9001.000000256	128
1	321	9001.000000256	0
1	345	9001.000000384	128
1	346	9001.000000384	0
1	370	9001.000000512	128
1	371	9001.000000512	0
1	403	10801	128
1	405	10801	0
1	428	10801.000000128	128
1	429	10801.000000128	0
1	473	12601	128
1	475	12601	0
1	498	12601.000000128	128
1	499	12601.000000128	0
1	523	12601.000000256	128
1	524	12601.000000256	0
1	548	12601.000000384	128
1	549	12601.000000384	0
1	573	12601.000000512	128
1	574	12601.000000512	0
1	598	12601.00000064	128
1	599	12601.00000064	0
1	623	12601.000000768	128
1	624	12601.000000768	0
1	648	12601.000000896	128
1	649	12601.000000896	0
1	1470	36001	128
1	1471	36001	256
1	1472	36001	384
1	1473	36001	512
1	1475	36001	384
1	1494	36001.000000128	256
1	1513	36001.000000256	128
1	1532	36001.000000384	0
1	1561	37801	128
1	1562	37801	256
1	1563	37801	384
1	1564	37801	512
1	1565	37801	640
1	1566	37801	768
1	1567	37801	896
1	1569	37801	768
1	1588	37801.000000128	640
1	1607	37801.000000256	512
1	1626	37801.000000384	384
1	1645	37801.000000512	256
1	1664	37801.00000064	128
1	1683	37801.000000768	0
1	1712	39601	128
1	1714	39601	0
1	1737	39601.000000128	128
1	1738	39601.000000128	0
1	2477	43201	128
1	2478	43201	256
1	2479	43201	384
1	2480	43201	512
1	2482	43201	384
1	2501	43201.000000128	256
1	2520	43201.000000256	128
1	2539	43201.000000384	0
1	2639	48601	128
1	2640	48601	256
1	2642	48601	128
1	2661	48601.000000128	0
1	2692	50401	128
1	2693	50401	256
1	2694	50401	384
1	2695	50401	512
1	2696	50401	640
1	2697	50401	768
1	2698	50401	896
1	2699	50401	1024
1	2700	50401	1024
1	2702	50401	896
1	2721	50401.000000128	768
1	2740	50401.000000256	640
1	2759	50401.000000384	512
1	2778	50401.000000512	384
1	2797	50401.00000064	256
1	2816	50401.000000768	128
1	2835	50401.000000896	0
1	2883	54001	128
1	2884	54001	256
1	2885	54001	384
1	2886	54001	512
1	2887	54001	640
1	2888	54001	768
1	2889	54001	896
1	2890	54001	1024
1	2892	54001	896
1	2911	54001.000000128	768
1	2930	54001.000000256	640
1	2949	54001.000000384	512
1	2968	54001.000000512	384
1	2987	54001.00000064	256
1	3006	54001.000000768	128
1	3025	54001.000000896	0
1	3680	73801	128
1	3682	73801	0
1	3705	73801.000000128	128
1	3706	73801.000000128	0
1	3730	73801.000000256	128
1	3731	73801.000000256	0
1	3755	73801.000000384	128
1	3756	73801.000000384	0
1	3780	73801.000000512	128
1	3781	73801.000000512	0
1	3805	73801.00000064	128
1	3806	73801.00000064	0
1	3830	73801.000000768	128
1	3831	73801.000000768	0
1	3855	73801.000000896	128
1	3856	73801.000000896	0
1	3898	75601	128
1	3900	75601	0
1	3923	75601.000000128	128
1	3924	75601.000000128	0
1	3948	75601.000000256	128
1	3949	75601.000000256	0
1	3973	75601.000000384	128
1	3974	75601.000000384	0
1	3998	75601.000000512	128
1	3999	75601.000000512	0
1	4023	75601.00000064	128
1	4024	75601.00000064	0
1	4048	75601.000000768	128
1	4049	75601.000000768	0
1	4121	79201	128
1	4123	79201	0
1	4258	82801	128
1	4260	82801	0
1	4283	82801.000000128	128
1	4284	82801.000000128	0
1	4308	82801.000000256	128
1	4309	82801.000000256	0
1	4333	82801.000000384	128
1	4334	82801.000000384	0
1	4502	86400	0
2	0	0	0
2	26	1	1
2	27	1	0
2	58	1801	1
2	59	1801	2
2	60	1801	1
2	85	1801.000000128	0
2	262	9001	1
2	263	9001	2
2	264	9001	3
2	265	9001	4
2	266	9001	5
2	267	9001	4
2	292	9001.000000128	3
2	317	9001.000000256	2
2	342	9001.000000384	1
2	367	9001.000000512	0
2	398	10801	1
2	399	10801	2
2	400	10801	1
2	425	10801.000000128	0
2	462	12601	1
2	463	12601	2
2	464	12601	3
2	465	12601	4
2	466	12601	5
2	467	12601	6
2	468	12601	7
2	469	12601	8
2	470	12601	7
2	495	12601.000000128	6
2	520	12601.000000256	5
2	545	12601.000000384	4
2	570	12601.000000512	3
2	595	12601.00000064	2
2	620	12601.000000768	1
2	645	12601.000000896	0
2	1707	39601	1
2	1708	39601	2
2	1709	39601	1
2	1734	39601.000000128	0
2	3668	73801	1
2	3669	73801	2
2	3670	73801	3
2	3671	73801	4
2	3672	73801	5
2	3673	73801	6
2	3674	73801	7
2	3675	73801	8
2	3676	73801	8
2	3677	73801	7
2	3702	73801.000000128	6
2	3727	73801.000000256	5
2	3752	73801.000000384	4
2	3777	73801.000000512	3
2	3802	73801.00000064	2
2	3827	73801.000000768	1
2	3852	73801.000000896	0
2	3888	75601	1
2	3889	75601	2
2	3890	75601	3
2	3891	75601	4
2	3892	75601	5
2	3893	75601	6
2	3894	75601	7
2	3895	75601	6
2	3920	75601.000000128	5
2	3945	75601.000000256	4
2	3970	75601.000000384	3
2	3995	75601.000000512	2
2	4020	75601.00000064	1
2	4045	75601.000000768	0
2	4251	82801	1
2	4252	82801	2
2	4253	82801	3
2	4254	82801	4
2	4255	82801	3
2	4280	82801.000000128	2
2	4305	82801.000000256	1
2	4330	82801.000000384	0
2	4502	86400	0
3	0	0	0
3	26	1	128
3	27	1	0
3	58	1801	128
3	59	1801	256
3	60	1801	128
3	85	1801.000000128	0
3	262	9001	128
3	263	9001	256
3	264	9001	384
3	265	9001	512
3	266	9001	640
3	267	9001	512
3	292	9001.000000128	384
3	317	9001.000000256	256
3	342	9001.000000384	128
3	367	9001.000000512	0
3	398	10801	128
3	399	10801	256
3	400	10801	128
3	425	10801.000000128	0
3	462	12601	128
3	463	12601	256
3	464	12601	384
3	465	12601	512
3	466	12601	640
3	467	12601	768
3	468	12601	896
3	469	12601	1024
3	470	12601	896
3	495	12601.000000128	768
3	520	12601.000000256	640
3	545	12601.000000384	512
3	570	12601.000000512	384
3	595	12601.00000064	256
3	620	12601.000000768	128
3	645	12601.000000896	0
3	1707	39601	128
3	1708	39601	256
3	1709	39601	128
3	1734	39601.000000128	0
3	3668	73801	128
3	3669	73801	256
3	3670	73801	384
3	3671	73801	512
3	3672	73801	640
3	3673	73801	768
3	3674	73801	896
3	3675	73801	1024
3	3676	73801	1024
3	3677	73801	896
3	3702	73801.000000128	768
3	3727	73801.000000256	640
3	3752	73801.000000384	512
3	3777	73801.000000512	384
3	3802	73801.00000064	256
3	3827	73801.000000768	128
3	3852	73801.000000896	0
3	3888	75601	128
3	3889	75601	256
3	3890	75601	384
3	3891	75601	512
3	3892	75601	640
3	3893	75601	768
3	3894	75601	896
3	3895	75601	768
3	3920	75601.000000128	640
3	3945	75601.000000256	512
3	3970	75601.000000384	384
3	3995	75601.000000512	256
3	4020	75601.00000064	128
3	4045	75601.000000768	0
3	4251	82801	128
3	4252	82801	256
3	4253	82801	384
3	4254	82801	512
3	4255	82801	384
3	4280	82801.000000128	256
3	4305	82801.000000256	128
3	4330	82801.000000384	0
3	4502	86400	0
4	0	0	0
4	134	5401	1
4	135	5401	2
4	136	5401	1
4	161	5401.000000128	0
4	1041	25201	1
4	1042	25201	2
4	1043	25201	1
4	1068	25201.000000128	0
4	1196	30601	1
4	1197	30601	2
4	1198	30601	3
4	1199	30601	4
4	1200	30601	5
4	1201	30601	6
4	1202	30601	7
4	1203	30601	6
4	1228	30601.000000128	5
4	1253	30601.000000256	4
4	1278	30601.000000384	3
4	1303	30601.000000512	2
4	1328	30601.00000064	1
4	1353	30601.000000768	0
4	2016	41401	1
4	2017	41401	2
4	2018	41401	3
4	2019	41401	4
4	2020	41401	5
4	2021	41401	6
4	2022	41401	7
4	2023	41401	8
4	2024	41401	8
4	2025	41401	8
4	2026	41401	8
4	2027	41401	8
4	2028	41401	8
4	2029	41401	8
4	2030	41401	8
4	2031	41401	8
4	2032	41401	8
4	2033	41401	8
4	2034	41401	8
4	2035	41401	8
4	2036	41401	8
4	2037	41401	8
4	2038	41401	8
4	2039	41401	8
4	2040	41401	8
4	2041	41401	8
4	2042	41401	8
4	2043	41401	8
4	2044	41401	8
4	2045	41401	8
4	2046	41401	8
4	2047	41401	8
4	2048	41401	8
4	2049	41401	8
4	2050	41401	8
4	2051	41401	8
4	2052	41401	8
4	2053	41401	8
4	2054	41401	8
4	2055	41401	8
4	2056	41401	8
4	2057	41401	8
4	2058	41401	8
4	2059	41401	8
4	2060	41401	8
4	2061	41401	8
4	2062	41401	8
4	2063	41401	8
4	2064	41401	8
4	2065	41401	8
4	2066	41401	8
4	2067	41401	8
4	2068	41401	8
4	2069	41401	8
4	2070	41401	8
4	2071	41401	8
4	2072	41401	8
4	2073	41401	8
4	2074	41401	8
4	2075	41401	8
4	2076	41401	8
4	2077	41401	8
4	2078	41401	8
4	2079	41401	8
4	2080	41401	8
4	2081	41401	8
4	2082	41401	8
4	2083	41401	8
4	2084	41401	8
4	2085	41401	8
4	2086	41401	8
4	2087	41401	8
4	2088	41401	8
4	2089	41401	8
4	2090	41401	8
4	2091	41401	8
4	2092	41401	8
4	2093	41401	8
4	2094	41401	8
4	2095	41401	8
4	2096	41401	8
4	2097	41401	8
4	2098	41401	8
4	2099	41401	8
4	2100	41401	8
4	2101	41401	8
4	2102	41401	8
4	2103	41401	8
4	2104	41401	8
4	2105	41401	8
4	2106	41401	8
4	2107	41401	8
4	2108	41401	8
4	2109	41401	8
4	2110	41401	8
4	2111	41401	8
4	2112	41401	8
4	2113	41401	8
4	2114	41401	8
4	2115	41401	8
4	2116	41401	8
4	2117	41401	8
4	2118	41401	8
4	2119	41401	8
4	2120	41401	8
4	2121	41401	8
4	2122	41401	8
4	2123	41401	8
4	2124	41401	8
4	2125	41401	8
4	2126	41401	8
4	2127	41401	8
4	2128	41401	8
4	2129	41401	8
4	2130	41401	8
4	2131	41401	8
4	2132	41401	8
4	2133	41401	8
4	2134	41401	8
4	2135	41401	8
4	2136	41401	8
4	2137	41401	8
4	2138	41401	8
4	2139	41401	8
4	2140	41401	8
4	2141	41401	8
4	2142	41401	8
4	2143	41401	8
4	2144	41401	8
4	2145	41401	8
4	2146	41401	8
4	2147	41401	8
4	2148	41401	8
4	2149	41401	8
4	2150	41401	8
4	2151	41401	8
4	2152	41401	8
4	2153	41401	8
4	2154	41401	8
4	2155	41401	8
4	2156	41401	8
4	2157	41401	8
4	2158	41401	8
4	2159	41401	8
4	2160	41401	8
4	2161	41401	8
4	2162	41401	8
4	2163	41401	8
4	2164	41401	8
4	2165	41401	8
4	2166	41401	8
4	2167	41401	8
4	2168	41401	8
4	2169	41401	8
4	2170	41401	8
4	2171	41401	8
4	2172	41401	8
4	2173	41401	8
4	2174	41401	8
4	2175	41401	8
4	2176	41401	8
4	2177	41401	8
4	2178	41401	8
4	2179	41401	8
4	2180	41401	8
4	2181	41401	8
4	2182	41401	8
4	2183	41401	8
4	2184	41401	8
4	2185	41401	8
4	2186	41401	8
4	2187	41401	8
4	2188	41401	8
4	2189	41401	8
4	2190	41401	8
4	2191	41401	8
4	2192	41401	8
4	2193	41401	8
4	2194	41401	8
4	2195	41401	8
4	2196	41401	8
4	2197	41401	8
4	2198	41401	8
4	2199	41401	8
4	2200	41401	8
4	2201	41401	8
4	2202	41401	8
4	2203	41401	8
4	2204	41401	8
4	2205	41401	8
4	2206	41401	8
4	2207	41401	8
4	2208	41401	8
4	2209	41401	8
4	2210	41401	8
4	2211	41401	8
4	2212	41401	8
4	2213	41401	8
4	2214	41401	8
4	2215	41401	8
4	2216	41401	8
4	2217	41401	8
4	2218	41401	8
4	2219	41401	8
4	2220	41401	8
4	2221	41401	8
4	2222	41401	8
4	2223	41401	8
4	2224	41401	8
4	2225	41401	8
4	2226	41401	8
4	2227	41401	8
4	2228	41401	8
4	2229	41401	8
4	2230	41401	8
4	2231	41401	8
4	2232	41401	8
4	2233	41401	8
4	2234	41401	8
4	2235	41401	8
4	2236	41401	8
4	2237	41401	8
4	2238	41401	8
4	2239	41401	8
4	2240	41401	8
4	2241	41401	8
4	2242	41401	8
4	2243	41401	8
4	2244	41401	8
4	2245	41401	8
4	2246	41401	8
4	2247	41401	8
4	2248	41401	8
4	2249	41401	8
4	2250	41401	8
4	2251	41401	8
4	2252	41401	8
4	2253	41401	8
4	2254	41401	8
4	2255	41401	8
4	2256	41401	8
4	2257	41401	8
4	2258	41401	8
4	2259	41401	8
4	2260	41401	8
4	2261	41401	8
4	2262	41401	8
4	2263	41401	8
4	2264	41401	8
4	2265	41401	8
4	2266	41401	8
4	2267	41401	8
4	2268	41401	8
4	2269	41401	7
4	2294	41401.000000128	6
4	2319	41401.000000256	5
4	2344	41401.000000384	4
4	2369	41401.000000512	3
4	2394	41401.00000064	2
4	2419	41401.000000768	1
4	2444	41401.000000896	0
4	3083	57601	1
4	3084	57601	2
4	3085	57601	3
4	3086	57601	4
4	3087	57601	3
4	3112	57601.000000128	2
4	3137	57601.000000256	1
4	3162	57601.000000384	0
4	3571	70201	1
4	3572	70201	2
4	3573	70201	1
4	3598	70201.000000128	0
4	4502	86400	0
5	0	0	0
5	134	5401	128
5	135	5401	256
5	136	5401	128
5	161	5401.000000128	0
5	1041	25201	128
5	1042	25201	256
5	1043	25201	128
5	1068	25201.000000128	0
5	1196	30601	128
5	1197	30601	256
5	1198	30601	384
5	1199	30601	512
5	1200	30601	640
5	1201	30601	768
5	1202	30601	896
5	1203	30601	768
5	1228	30601.000000128	640
5	1253	30601.000000256	512
5	1278	30601.000000384	384
5	1303	30601.000000512	256
5	1328	30601.00000064	128
5	1353	30601.000000768	0
5	2016	41401	128
5	2017	41401	256
5	2018	41401	384
5	2019	41401	512
5	2020	41401	640
5	2021	41401	768
5	2022	41401	896
5	2023	41401	1024
5	2024	41401	1024
5	2025	41401	1024
5	2026	41401	1024
5	2027	41401	1024
5	2028	41401	1024
5	2029	41401	1024
5	2030	41401	1024
5	2031	41401	1024
5	2032	41401	1024
5	2033	41401	1024
5	2034	41401	1024
5	2035	41401	1024
5	2036	41401	1024
5	2037	41401	1024
5	2038	41401	1024
5	2039	41401	1024
5	2040	41401	1024
5	2041	41401	1024
5	2042	41401	1024
5	2043	41401	1024
5	2044	41401	1024
5	2045	41401	1024
5	2046	41401	1024
5	2047	41401	1024
5	2048	41401	1024
5	2049	41401	1024
5	2050	41401	1024
5	2051	41401	1024
5	2052	41401	1024
5	2053	41401	1024
5	2054	41401	1024
5	2055	41401	1024
5	2056	41401	1024
5	2057	41401	1024
5	2058	41401	1024
5	2059	41401	1024
5	2060	41401	1024
5	2061	41401	1024
5	2062	41401	1024
5	2063	41401	1024
5	2064	41401	1024
5	2065	41401	1024
5	2066	41401	1024
5	2067	41401	1024
5	2068	41401	1024
5	2069	41401	1024
5	2070	41401	1024
5	2071	41401	1024
5	2072	41401	1024
5	2073	41401	1024
5	2074	41401	1024
5	2075	41401	1024
5	2076	41401	1024
5	2077	41401	1024
5	2078	41401	1024
5	2079	41401	1024
5	2080	41401	1024
5	2081	41401	1024
5	2082	41401	1024
5	2083	41401	1024
5	2084	41401	1024
5	2085	41401	1024
5	2086	41401	1024
5	2087	41401	1024
5	2088	41401	1024
5	2089	41401	1024
5	2090	41401	1024
5	2091	41401	1024
5	2092	41401	1024
5	2093	41401	1024
5	2094	41401	1024
5	2095	41401	1024
5	2096	41401	1024
5	2097	41401	1024
5	2098	41401	1024
5	2099	41401	1024
5	2100	41401	1024
5	2101	41401	1024
5	2102	41401	1024
5	2103	41401	1024
5	2104	41401	1024
5	2105	41401	1024
5	2106	41401	1024
5	2107	41401	1024
5	2108	41401	1024
5	2109	41401	1024
5	2110	41401	1024
5	2111	41401	1024
5	2112	41401	1024
5	2113	41401	1024
5	2114	41401	1024
5	2115	41401	1024
5	2116	41401	1024
5	2117	41401	1024
5	2118	41401	1024
5	2119	41401	1024
5	2120	41401	1024
5	2121	41401	1024
5	2122	41401	1024
5	2123	41401	1024
5	2124	41401	1024
5	2125	41401	1024
5	2126	41401	1024
5	2127	41401	1024
5	2128	41401	1024
5	2129	41401	1024
5	2130	41401	1024
5	2131	41401	1024
5	2132	41401	1024
5	2133	41401	1024
5	2134	41401	1024
5	2135	41401	1024
5	2136	41401	1024
5	2137	41401	1024
5	2138	41401	1024
5	2139	41401	1024
5	2140	41401	1024
5	2141	41401	1024
5	2142	41401	1024
5	2143	41401	1024
5	2144	41401	1024
5	2145	41401	1024
5	2146	41401	1024
5	2147	41401	1024
5	2148	41401	1024
5	2149	41401	1024
5	2150	41401	1024
5	2151	41401	1024
5	2152	41401	1024
5	2153	41401	1024
5	2154	41401	1024
5	2155	41401	1024
5	2156	41401	1024
5	2157	41401	1024
5	2158	41401	1024
5	2159	41401	1024
5	2160	41401	1024
5	2161	41401	1024
5	2162	41401	1024
5	2163	41401	1024
5	2164	41401	1024
5	2165	41401	1024
5	2166	41401	1024
5	2167	41401	1024
5	2168	41401	1024
5	2169	41401	1024
5	2170	41401	1024
5	2171	41401	1024
5	2172	41401	1024
5	2173	41401	1024
5	2174	41401	1024
5	2175	41401	1024
5	2176	41401	1024
5	2177	41401	1024
5	2178	41401	1024
5	2179	41401	1024
5	2180	41401	1024
5	2181	41401	1024
5	2182	41401	1024
5	2183	41401	1024
5	2184	41401	1024
5	2185	41401	1024
5	2186	41401	1024
5	2187	41401	1024
5	2188	41401	1024
5	2189	41401	1024
5	2190	41401	1024
5	2191	41401	1024
5	2192	41401	1024
5	2193	41401	1024
5	2194	41401	1024
5	2195	41401	1024
5	2196	41401	1024
5	2197	41401	1024
5	2198	41401	1024
5	2199	41401	1024
5	2200	41401	1024
5	2201	41401	1024
5	2202	41401	1024
5	2203	41401	1024
5	2204	41401	1024
5	2205	41401	1024
5	2206	41401	1024
5	2207	41401	1024
5	2208	41401	1024
5	2209	41401	1024
5	2210	41401	1024
5	2211	41401	1024
5	2212	41401	1024
5	2213	41401	1024
5	2214	41401	1024
5	2215	41401	1024
5	2216	41401	1024
5	2217	41401	1024
5	2218	41401	1024
5	2219	41401	1024
5	2220	41401	1024
5	2221	41401	1024
5	2222	41401	1024
5	2223	41401	1024
5	2224	41401	1024
5	2225	41401	1024
5	2226	41401	1024
5	2227	41401	1024
5	2228	41401	1024
5	2229	41401	1024
5	2230	41401	1024
5	2231	41401	1024
5	2232	41401	1024
5	2233	41401	1024
5	2234	41401	1024
5	2235	41401	1024
5	2236	41401	1024
5	2237	41401	1024
5	2238	41401	1024
5	2239	41401	1024
5	2240	41401	1024
5	2241	41401	1024
5	2242	41401	1024
5	2243	41401	1024
5	2244	41401	1024
5	2245	41401	1024
5	2246	41401	1024
5	2247	41401	1024
5	2248	41401	1024
5	2249	41401	1024
5	2250	41401	1024
5	2251	41401	1024
5	2252	41401	1024
5	2253	41401	1024
5	2254	41401	1024
5	2255	41401	1024
5	2256	41401	1024
5	2257	41401	1024
5	2258	41401	1024
5	2259	41401	1024
5	2260	41401	1024
5	2261	41401	1024
5	2262	41401	1024
5	2263	41401	1024
5	2264	41401	1024
5	2265	41401	1024
5	2266	41401	1024
5	2267	41401	1024
5	2268	41401	1024
5	2269	41401	896
5	2294	41401.000000128	768
5	2319	41401.000000256	640
5	2344	41401.000000384	512
5	2369	41401.000000512	384
5	2394	41401.00000064	256
5	2419	41401.000000768	128
5	2444	41401.000000896	0
5	3083	57601	128
5	3084	57601	256
5	3085	57601	384
5	3086	57601	512
5	3087	57601	384
5	3112	57601.000000128	256
5	3137	57601.000000256	128
5	3162	57601.000000384	0
5	3571	70201	128
5	3572	70201	256
5	3573	70201	128
5	3598	70201.000000128	0
5	4502	86400	0
6	0	0	0
6	139	5401	1
6	140	5401	0
6	164	5401.000000128	1
6	165	5401.000000128	0
6	675	14401	1
6	676	14401	0
6	1046	25201	1
6	1047	25201	0
6	1071	25201.000000128	1
6	1072	25201.000000128	0
6	1206	30601	1
6	1207	30601	0
6	1231	30601.000000128	1
6	1232	30601.000000128	0
6	1256	30601.000000256	1
6	1257	30601.000000256	0
6	1281	30601.000000384	1
6	1282	30601.000000384	0
6	1306	30601.000000512	1
6	1307	30601.000000512	0
6	1331	30601.00000064	1
6	1332	30601.00000064	0
6	1356	30601.000000768	1
6	1357	30601.000000768	0
6	2272	41401	1
6	2273	41401	0
6	2297	41401.000000128	1
6	2298	41401.000000128	0
6	2322	41401.000000256	1
6	2323	41401.000000256	0
6	2347	41401.000000384	1
6	2348	41401.000000384	0
6	2372	41401.000000512	1
6	2373	41401.000000512	0
6	2397	41401.00000064	1
6	2398	41401.00000064	0
6	2422	41401.000000768	1
6	2423	41401.000000768	0
6	2447	41401.000000896	1
6	2448	41401.000000896	0
6	3090	57601	1
6	3091	57601	0
6	3115	57601.000000128	1
6	3116	57601.000000128	0
6	3140	57601.000000256	1
6	3141	57601.000000256	0
6	3165	57601.000000384	1
6	3166	57601.000000384	0
6	3260	61201	1
6	3261	61201	2
6	3262	61201	3
6	3263	61201	2
6	3283	61201.000000128	1
6	3302	61201.000000256	0
6	3465	68401	1
6	3466	68401	2
6	3467	68401	3
6	3468	68401	4
6	3469	68401	5
6	3470	68401	4
6	3490	68401.000000128	3
6	3509	68401.000000256	2
6	3528	68401.000000384	1
6	3547	68401.000000512	0
6	3576	70201	1
6	3577	70201	0
6	3601	70201.000000128	1
6	3602	70201.000000128	0
6	4076	77401	1
6	4077	77401	2
6	4078	77401	1
6	4098	77401.000000128	0
6	4365	84601	1
6	4366	84601	2
6	4367	84601	3
6	4368	84601	4
6	4369	84601	5
6	4370	84601	6
6	4371	84601	5
6	4391	84601.000000128	4
6	4410	84601.000000256	3
6	4429	84601.000000384	2
6	4448	84601.000000512	1
6	4467	84601.00000064	0
6	4502	86400	0
7	0	0	0
7	139	5401	128
7	140	5401	0
7	164	5401.000000128	128
7	165	5401.000000128	0
7	675	14401	128
7	676	14401	0
7	1046	25201	128
7	1047	25201	0
7	1071	25201.000000128	128
7	1072	25201.000000128	0
7	1206	30601	128
7	1207	30601	0
7	1231	30601.000000128	128
7	1232	30601.000000128	0
7	1256	30601.000000256	128
7	1257	30601.000000256	0
7	1281	30601.000000384	128
7	1282	30601.000000384	0
7	1306	30601.000000512	128
7	1307	30601.000000512	0
7	1331	30601.00000064	128
7	1332	30601.00000064	0
7	1356	30601.000000768	128
7	1357	30601.000000768	0
7	2272	41401	128
7	2273	41401	0
7	2297	41401.000000128	128
7	2298	41401.000000128	0
7	2322	41401.000000256	128
7	2323	41401.000000256	0
7	2347	41401.000000384	128
7	2348	41401.000000384	0
7	2372	41401.000000512	128
7	2373	41401.000000512	0
7	2397	41401.00000064	128
7	2398	41401.00000064	0
7	2422	41401.000000768	128
7	2423	41401.000000768	0
7	2447	41401.000000896	128
7	2448	41401.000000896	0
7	3090	57601	128
7	3091	57601	0
7	3115	57601.000000128	128
7	3116	57601.000000128	0
7	3140	57601.000000256	128
7	3141	57601.000000256	0
7	3165	57601.000000384	128
7	3166	57601.000000384	0
7	3260	61201	128
7	3261	61201	256
7	3262	61201	384
7	3263	61201	256
7	3283	61201.000000128	128
7	3302	61201.000000256	0
7	3465	68401	128
7	3466	68401	256
7	3467	68401	384
7	3468	68401	512
7	3469	68401	640
7	3470	68401	512
7	3490	68401.000000128	384
7	3509	68401.000000256	256
7	3528	68401.000000384	128
7	3547	68401.000000512	0
7	3576	70201	128
7	3577	70201	0
7	3601	70201.000000128	128
7	3602	70201.000000128	0
7	4076	77401	128
7	4077	77401	256
7	4078	77401	128
7	4098	77401.000000128	0
7	4365	84601	128
7	4366	84601	256
7	4367	84601	384
7	4368	84601	512
7	4369	84601	640
7	4370	84601	768
7	4371	84601	640
7	4391	84601.000000128	512
7	4410	84601.000000256	384
7	4429	84601.000000384	256
7	4448	84601.000000512	128
7	4467	84601.00000064	0
7	4502	86400	0
8	0	0	0
8	35	1	1
8	38	1	0
8	68	1801	1
8	71	1801	0
8	92	1801.000000128	1
8	93	1801.000000128	0
8	143	5401	1
8	147	5401	0
8	168	5401.000000128	1
8	169	5401.000000128	0
8	200	7201	1
8	203	7201	0
8	219	7201.000000128	1
8	220	7201.000000128	0
8	238	7201.000000256	1
8	239	7201.000000256	0
8	275	9001	1
8	278	9001	0
8	299	9001.000000128	1
8	300	9001.000000128	0
8	324	9001.000000256	1
8	325	9001.000000256	0
8	349	9001.000000384	1
8	350	9001.000000384	0
8	374	9001.000000512	1
8	375	9001.000000512	0
8	408	10801	1
8	411	10801	0
8	432	10801.000000128	1
8	433	10801.000000128	0
8	478	12601	1
8	481	12601	0
8	502	12601.000000128	1
8	503	12601.000000128	0
8	527	12601.000000256	1
8	528	12601.000000256	0
8	552	12601.000000384	1
8	553	12601.000000384	0
8	577	12601.000000512	1
8	578	12601.000000512	0
8	602	12601.00000064	1
8	603	12601.00000064	0
8	627	12601.000000768	1
8	628	12601.000000768	0
8	652	12601.000000896	1
8	653	12601.000000896	0
8	679	14401	1
8	683	14401	0
8	705	16201	1
8	706	16201	2
8	707	16201	3
8	708	16201	4
8	709	16201	5
8	710	16201	6
8	713	16201	5
8	725	16201.000000128	4
8	737	16201.000000256	3
8	749	16201.000000384	2
8	761	16201.000000512	1
8	773	16201.00000064	0
8	791	18001	1
8	792	18001	2
8	793	18001	3
8	794	18001	4
8	797	18001	3
8	809	18001.000000128	2
8	821	18001.000000256	1
8	833	18001.000000384	0
8	855	19801	1
8	856	19801	2
8	857	19801	3
8	858	19801	4
8	859	19801	5
8	860	19801	6
8	861	19801	7
8	862	19801	8
8	865	19801	7
8	877	19801.000000128	6
8	889	19801.000000256	5
8	901	19801.000000384	4
8	913	19801.000000512	3
8	925	19801.00000064	2
8	937	19801.000000768	1
8	949	19801.000000896	0
8	1050	25201	1
8	1054	25201	0
8	1075	25201.000000128	1
8	1076	25201.000000128	0
8	1120	28801	1
8	1121	28801	2
8	1122	28801	3
8	1123	28801	4
8	1124	28801	5
8	1127	28801	4
8	1139	28801.000000128	3
8	1151	28801.000000256	2
8	1163	28801.000000384	1
8	1175	28801.000000512	0
8	1210	30601	1
8	1214	30601	0
8	1235	30601.000000128	1
8	1236	30601.000000128	0
8	1260	30601.000000256	1
8	1261	30601.000000256	0
8	1285	30601.000000384	1
8	1286	30601.000000384	0
8	1310	30601.000000512	1
8	1311	30601.000000512	0
8	1335	30601.00000064	1
8	1336	30601.00000064	0
8	1360	30601.000000768	1
8	1361	30601.000000768	0
8	1397	34201	1
8	1398	34201	2
8	1399	34201	3
8	1400	34201	4
8	1401	34201	5
8	1404	34201	4
8	1416	34201.000000128	3
8	1428	34201.000000256	2
8	1440	34201.000000384	1
8	1452	34201.000000512	0
8	1478	36001	1
8	1481	36001	0
8	1497	36001.000000128	1
8	1498	36001.000000128	0
8	1516	36001.000000256	1
8	1517	36001.000000256	0
8	1535	36001.000000384	1
8	1536	36001.000000384	0
8	1572	37801	1
8	1575	37801	0
8	1591	37801.000000128	1
8	1592	37801.000000128	0
8	1610	37801.000000256	1
8	1611	37801.000000256	0
8	1629	37801.000000384	1
8	1630	37801.000000384	0
8	1648	37801.000000512	1
8	1649	37801.000000512	0
8	1667	37801.00000064	1
8	1668	37801.00000064	0
8	1686	37801.000000768	1
8	1687	37801.000000768	0
8	1717	39601	1
8	1720	39601	0
8	1741	39601.000000128	1
8	1742	39601.000000128	0
8	2276	41401	1
8	2280	41401	0
8	2301	41401.000000128	1
8	2302	41401.000000128	0
8	2326	41401.000000256	1
8	2327	41401.000000256	0
8	2351	41401.000000384	1
8	2352	41401.000000384	0
8	2376	41401.000000512	1
8	2377	41401.000000512	0
8	2401	41401.00000064	1
8	2402	41401.00000064	0
8	2426	41401.000000768	1
8	2427	41401.000000768	0
8	2451	41401.000000896	1
8	2452	41401.000000896	0
8	2485	43201	1
8	2488	43201	0
8	2504	43201.000000128	1
8	2505	43201.000000128	0
8	2523	43201.000000256	1
8	2524	43201.000000256	0
8	2542	43201.000000384	1
8	2543	43201.000000384	0
8	2645	48601	1
8	2648	48601	0
8	2664	48601.000000128	1
8	2665	48601.000000128	0
8	2705	50401	1
8	2708	50401	0
8	2724	50401.000000128	1
8	2725	50401.000000128	0
8	2743	50401.000000256	1
8	2744	50401.000000256	0
8	2762	50401.000000384	1
8	2763	50401.000000384	0
8	2781	50401.000000512	1
8	2782	50401.000000512	0
8	2800	50401.00000064	1
8	2801	50401.00000064	0
8	2819	50401.000000768	1
8	2820	50401.000000768	0
8	2838	50401.000000896	1
8	2839	50401.000000896	0
8	2858	52201	1
8	2861	52201	0
8	2895	54001	1
8	2898	54001	0
8	2914	54001.000000128	1
8	2915	54001.000000128	0
8	2933	54001.000000256	1
8	2934	54001.000000256	0
8	2952	54001.000000384	1
8	2953	54001.000000384	0
8	2971	54001.000000512	1
8	2972	54001.000000512	0
8	2990	54001.00000064	1
8	2991	54001.00000064	0
8	3009	54001.000000768	1
8	3010	54001.000000768	0
8	3028	54001.000000896	1
8	3029	54001.000000896	0
8	3049	55801	1
8	3050	55801	2
8	3053	55801	1
8	3065	55801.000000128	0
8	3094	57601	1
8	3098	57601	0
8	3119	57601.000000128	1
8	3120	57601.000000128	0
8	3144	57601.000000256	1
8	3145	57601.000000256	0
8	3169	57601.000000384	1
8	3170	57601.000000384	0
8	3266	61201	1
8	3270	61201	0
8	3286	61201.000000128	1
8	3287	61201.000000128	0
8	3305	61201.000000256	1
8	3306	61201.000000256	0
8	3326	63001	1
8	3327	63001	2
8	3330	63001	1
8	3342	63001.000000128	0
8	3359	64801	1
8	3360	64801	2
8	3361	64801	3
8	3364	64801	2
8	3376	64801.000000128	1
8	3388	64801.000000256	0
8	3473	68401	1
8	3477	68401	0
8	3493	68401.000000128	1
8	3494	68401.000000128	0
8	3512	68401.000000256	1
8	3513	68401.000000256	0
8	3531	68401.000000384	1
8	3532	68401.000000384	0
8	3550	68401.000000512	1
8	3551	68401.000000512	0
8	3580	70201	1
8	3584	70201	0
8	3605	70201.000000128	1
8	3606	70201.000000128	0
8	3629	72001	1
8	3630	72001	2
8	3633	72001	1
8	3645	72001.000000128	0
8	3685	73801	1
8	3688	73801	0
8	3709	73801.000000128	1
8	3710	73801.000000128	0
8	3734	73801.000000256	1
8	3735	73801.000000256	0
8	3759	73801.000000384	1
8	3760	73801.000000384	0
8	3784	73801.000000512	1
8	3785	73801.000000512	0
8	3809	73801.00000064	1
8	3810	73801.00000064	0
8	3834	73801.000000768	1
8	3835	73801.000000768	0
8	3859	73801.000000896	1
8	3860	73801.000000896	0
8	3903	75601	1
8	3906	75601	0
8	3927	75601.000000128	1
8	3928	75601.000000128	0
8	3952	75601.000000256	1
8	3953	75601.000000256	0
8	3977	75601.000000384	1
8	3978	75601.000000384	0
8	4002	75601.000000512	1
8	4003	75601.000000512	0
8	4027	75601.00000064	1
8	4028	75601.00000064	0
8	4052	75601.000000768	1
8	4053	75601.000000768	0
8	4081	77401	1
8	4085	77401	0
8	4101	77401.000000128	1
8	4102	77401.000000128	0
8	4126	79201	1
8	4129	79201	0
8	4152	81001	1
8	4153	81001	2
8	4154	81001	3
8	4155	81001	4
8	4156	81001	5
8	4157	81001	6
8	4158	81001	7
8	4161	81001	6
8	4173	81001.000000128	5
8	4185	81001.000000256	4
8	4197	81001.000000384	3
8	4209	81001.000000512	2
8	4221	81001.00000064	1
8	4233	81001.000000768	0
8	4263	82801	1
8	4266	82801	0
8	4287	82801.000000128	1
8	4288	82801.000000128	0
8	4312	82801.000000256	1
8	4313	82801.000000256	0
8	4337	82801.000000384	1
8	4338	82801.000000384	0
8	4374	84601	1
8	4378	84601	0
8	4394	84601.000000128	1
8	4395	84601.000000128	0
8	4413	84601.000000256	1
8	4414	84601.000000256	0
8	4432	84601.000000384	1
8	4433	84601.000000384	0
8	4451	84601.000000512	1
8	4452	84601.000000512	0
8	4470	84601.00000064	1
8	4471	84601.00000064	0
8	4502	86400	0
9	0	0	0
9	35	1	128
9	38	1	0
9	68	1801	128
9	71	1801	0
9	92	1801.000000128	128
9	93	1801.000000128	0
9	143	5401	128
9	147	5401	0
9	168	5401.000000128	128
9	169	5401.000000128	0
9	200	7201	128
9	203	7201	0
9	219	7201.000000128	128
9	220	7201.000000128	0
9	238	7201.000000256	128
9	239	7201.000000256	0
9	275	9001	128
9	278	9001	0
9	299	9001.000000128	128
9	300	9001.000000128	0
9	324	9001.000000256	128
9	325	9001.000000256	0
9	349	9001.000000384	128
9	350	9001.000000384	0
9	374	9001.000000512	128
9	375	9001.000000512	0
9	408	10801	128
9	411	10801	0
9	432	10801.000000128	128
9	433	10801.000000128	0
9	478	12601	128
9	481	12601	0
9	502	12601.000000128	128
9	503	12601.000000128	0
9	527	12601.000000256	128
9	528	12601.000000256	0
9	552	12601.000000384	128
9	553	12601.000000384	0
9	577	12601.000000512	128
9	578	12601.000000512	0
9	602	12601.00000064	128
9	603	12601.00000064	0
9	627	12601.000000768	128
9	628	12601.000000768	0
9	652	12601.000000896	128
9	653	12601.000000896	0
9	679	14401	128
9	683	14401	0
9	705	16201	128
9	706	16201	256
9	707	16201	384
9	708	16201	512
9	709	16201	640
9	710	16201	768
9	713	16201	640
9	725	16201.000000128	512
9	737	16201.000000256	384
9	749	16201.000000384	256
9	761	16201.000000512	128
9	773	16201.00000064	0
9	791	18001	128
9	792	18001	256
9	793	18001	384
9	794	18001	512
9	797	18001	384
9	809	18001.000000128	256
9	821	18001.000000256	128
9	833	18001.000000384	0
9	855	19801	128
9	856	19801	256
9	857	19801	384
9	858	19801	512
9	859	19801	640
9	860	19801	768
9	861	19801	896
9	862	19801	1024
9	865	19801	896
9	877	19801.000000128	768
9	889	19801.000000256	640
9	901	19801.000000384	512
9	913	19801.000000512	384
9	925	19801.00000064	256
9	937	19801.000000768	128
9	949	19801.000000896	0
9	1050	25201	128
9	1054	25201	0
9	1075	25201.000000128	128
9	1076	25201.000000128	0
9	1120	28801	128
9	1121	28801	256
9	1122	28801	384
9	1123	28801	512
9	1124	28801	640
9	1127	28801	512
9	1139	28801.000000128	384
9	1151	28801.000000256	256
9	1163	28801.000000384	128
9	1175	28801.000000512	0
9	1210	30601	128
9	1214	30601	0
9	1235	30601.000000128	128
9	1236	30601.000000128	0
9	1260	30601.000000256	128
9	1261	30601.000000256	0
9	1285	30601.000000384	128
9	1286	30601.000000384	0
9	1310	30601.000000512	128
9	1311	30601.000000512	0
9	1335	30601.00000064	128
9	1336	30601.00000064	0
9	1360	30601.000000768	128
9	1361	30601.000000768	0
9	1397	34201	128
9	1398	34201	256
9	1399	34201	384
9	1400	34201	512
9	1401	34201	640
9	1404	34201	512
9	1416	34201.000000128	384
9	1428	34201.000000256	256
9	1440	34201.000000384	128
9	1452	34201.000000512	0
9	1478	36001	128
9	1481	36001	0
9	1497	36001.000000128	128
9	1498	36001.000000128	0
9	1516	36001.000000256	128
9	1517	36001.000000256	0
9	1535	36001.000000384	128
9	1536	36001.000000384	0
9	1572	37801	128
9	1575	37801	0
9	1591	37801.000000128	128
9	1592	37801.000000128	0
9	1610	37801.000000256	128
9	1611	37801.000000256	0
9	1629	37801.000000384	128
9	1630	37801.000000384	0
9	1648	37801.000000512	128
9	1649	37801.000000512	0
9	1667	37801.00000064	128
9	1668	37801.00000064	0
9	1686	37801.000000768	128
9	1687	37801.000000768	0
9	1717	39601	128
9	1720	39601	0
9	1741	39601.000000128	128
9	1742	39601.000000128	0
9	2276	41401	128
9	2280	41401	0
9	2301	41401.000000128	128
9	2302	41401.000000128	0
9	2326	41401.000000256	128
9	2327	41401.000000256	0
9	2351	41401.000000384	128
9	2352	41401.000000384	0
9	2376	41401.000000512	128
9	2377	41401.000000512	0
9	2401	41401.00000064	128
9	2402	41401.00000064	0
9	2426	41401.000000768	128
9	2427	41401.000000768	0
9	2451	41401.000000896	128
9	2452	41401.000000896	0
9	2485	43201	128
9	2488	43201	0
9	2504	43201.000000128	128
9	2505	43201.000000128	0
9	2523	43201.000000256	128
9	2524	43201.000000256	0
9	2542	43201.000000384	128
9	2543	43201.000000384	0
9	2645	48601	128
9	2648	48601	0
9	2664	48601.000000128	128
9	2665	48601.000000128	0
9	2705	50401	128
9	2708	50401	0
9	2724	50401.000000128	128
9	2725	50401.000000128	0
9	2743	50401.000000256	128
9	2744	50401.000000256	0
9	2762	50401.000000384	128
9	2763	50401.000000384	0
9	2781	50401.000000512	128
9	2782	50401.000000512	0
9	2800	50401.00000064	128
9	2801	50401.00000064	0
9	2819	50401.000000768	128
9	2820	50401.000000768	0
9	2838	50401.000000896	128
9	2839	50401.000000896	0
9	2858	52201	128
9	2861	52201	0
9	2895	54001	128
9	2898	54001	0
9	2914	54001.000000128	128
9	2915	54001.000000128	0
9	2933	54001.000000256	128
9	2934	54001.000000256	0
9	2952	54001.000000384	128
9	2953	54001.000000384	0
9	2971	54001.000000512	128
9	2972	54001.000000512	0
9	2990	54001.00000064	128
9	2991	54001.00000064	0
9	3009	54001.000000768	128
9	3010	54001.000000768	0
9	3028	54001.000000896	128
9	3029	54001.000000896	0
9	3049	55801	128
9	3050	55801	256
9	3053	55801	128
9	3065	55801.000000128	0
9	3094	57601	128
9	3098	57601	0
9	3119	57601.000000128	128
9	3120	57601.000000128	0
9	3144	57601.000000256	128
9	3145	57601.000000256	0
9	3169	57601.000000384	128
9	3170	57601.000000384	0
9	3266	61201	128
9	3270	61201	0
9	3286	61201.000000128	128
9	3287	61201.000000128	0
9	3305	61201.000000256	128
9	3306	61201.000000256	0
9	3326	63001	128
9	3327	63001	256
9	3330	63001	128
9	3342	63001.000000128	0
9	3359	64801	128
9	3360	64801	256
9	3361	64801	384
9	3364	64801	256
9	3376	64801.000000128	128
9	3388	64801.000000256	0
9	3473	68401	128
9	3477	68401	0
9	3493	68401.000000128	128
9	3494	68401.000000128	0
9	3512	68401.000000256	128
9	3513	68401.000000256	0
9	3531	68401.000000384	128
9	3532	68401.000000384	0
9	3550	68401.000000512	128
9	3551	68401.000000512	0
9	3580	70201	128
9	3584	70201	0
9	3605	70201.000000128	128
9	3606	70201.000000128	0
9	3629	72001	128
9	3630	72001	256
9	3633	72001	128
9	3645	72001.000000128	0
9	3685	73801	128
9	3688	73801	0
9	3709	73801.000000128	128
9	3710	73801.000000128	0
9	3734	73801.000000256	128
9	3735	73801.000000256	0
9	3759	73801.000000384	128
9	3760	73801.000000384	0
9	3784	73801.000000512	128
9	3785	73801.000000512	0
9	3809	73801.00000064	128
9	3810	73801.00000064	0
9	3834	73801.000000768	128
9	3835	73801.000000768	0
9	3859	73801.000000896	128
9	3860	73801.000000896	0
9	3903	75601	128
9	3906	75601	0
9	3927	75601.000000128	128
9	3928	75601.000000128	0
9	3952	75601.000000256	128
9	3953	75601.000000256	0
9	3977	75601.000000384	128
9	3978	75601.000000384	0
9	4002	75601.000000512	128
9	4003	75601.000000512	0
9	4027	75601.00000064	128
9	4028	75601.00000064	0
9	4052	75601.000000768	128
9	4053	75601.000000768	0
9	4081	77401	128
9	4085	77401	0
9	4101	77401.000000128	128
9	4102	77401.000000128	0
9	4126	79201	128
9	4129	79201	0
9	4152	81001	128
9	4153	81001	256
9	4154	81001	384
9	4155	81001	512
9	4156	81001	640
9	4157	81001	768
9	4158	81001	896
9	4161	81001	768
9	4173	81001.000000128	640
9	4185	81001.000000256	512
9	4197	81001.000000384	384
9	4209	81001.000000512	256
9	4221	81001.00000064	128
9	4233	81001.000000768	0
9	4263	82801	128
9	4266	82801	0
9	4287	82801.000000128	128
9	4288	82801.000000128	0
9	4312	82801.000000256	128
9	4313	82801.000000256	0
9	4337	82801.000000384	128
9	4338	82801.000000384	0
9	4374	84601	128
9	4378	84601	0
9	4394	84601.000000128	128
9	4395	84601.000000128	0
9	4413	84601.000000256	128
9	4414	84601.000000256	0
9	4432	84601.000000384	128
9	4433	84601.000000384	0
9	4451	84601.000000512	128
9	4452	84601.000000512	0
9	4470	84601.00000064	128
9	4471	84601.00000064	0
9	4502	86400	0
10	0	0	0
10	41	1	1
10	43	1	0
10	74	1801	1
10	76	1801	0
10	96	1801.000000128	1
10	97	1801.000000128	0
10	116	3601	1
10	117	3601	2
10	119	3601	1
10	125	3601.000000128	0
10	150	5401	1
10	152	5401	0
10	172	5401.000000128	1
10	173	5401.000000128	0
10	206	7201	1
10	208	7201	0
10	223	7201.000000128	1
10	224	7201.000000128	0
10	242	7201.000000256	1
10	243	7201.000000256	0
10	281	9001	1
10	283	9001	0
10	303	9001.000000128	1
10	304	9001.000000128	0
10	328	9001.000000256	1
10	329	9001.000000256	0
10	353	9001.000000384	1
10	354	9001.000000384	0
10	378	9001.000000512	1
10	379	9001.000000512	0
10	414	10801	1
10	416	10801	0
10	436	10801.000000128	1
10	437	10801.000000128	0
10	484	12601	1
10	486	12601	0
10	506	12601.000000128	1
10	507	12601.000000128	0
10	531	12601.000000256	1
10	532	12601.000000256	0
10	556	12601.000000384	1
10	557	12601.000000384	0
10	581	12601.000000512	1
10	582	12601.000000512	0
10	606	12601.00000064	1
10	607	12601.00000064	0
10	631	12601.000000768	1
10	632	12601.000000768	0
10	656	12601.000000896	1
10	657	12601.000000896	0
10	686	14401	1
10	688	14401	0
10	716	16201	1
10	718	16201	0
10	728	16201.000000128	1
10	729	16201.000000128	0
10	740	16201.000000256	1
10	741	16201.000000256	0
10	752	16201.000000384	1
10	753	16201.000000384	0
10	764	16201.000000512	1
10	765	16201.000000512	0
10	776	16201.00000064	1
10	777	16201.00000064	0
10	800	18001	1
10	802	18001	0
10	812	18001.000000128	1
10	813	18001.000000128	0
10	824	18001.000000256	1
10	825	18001.000000256	0
10	836	18001.000000384	1
10	837	18001.000000384	0
10	868	19801	1
10	870	19801	0
10	880	19801.000000128	1
10	881	19801.000000128	0
10	892	19801.000000256	1
10	893	19801.000000256	0
10	904	19801.000000384	1
10	905	19801.000000384	0
10	916	19801.000000512	1
10	917	19801.000000512	0
10	928	19801.00000064	1
10	929	19801.00000064	0
10	940	19801.000000768	1
10	941	19801.000000768	0
10	952	19801.000000896	1
10	953	19801.000000896	0
10	967	21601	1
10	968	21601	2
10	969	21601	3
10	970	21601	4
10	972	21601	3
10	978	21601.000000128	2
10	984	21601.000000256	1
10	990	21601.000000384	0
10	1002	23401	1
10	1003	23401	2
10	1004	23401	3
10	1005	23401	4
10	1006	23401	5
10	1008	23401	4
10	1014	23401.000000128	3
10	1020	23401.000000256	2
10	1026	23401.000000384	1
10	1032	23401.000000512	0
10	1057	25201	1
10	1059	25201	0
10	1079	25201.000000128	1
10	1080	25201.000000128	0
10	1099	27001	1
10	1100	27001	2
10	1102	27001	1
10	1108	27001.000000128	0
10	1130	28801	1
10	1132	28801	0
10	1142	28801.000000128	1
10	1143	28801.000000128	0
10	1154	28801.000000256	1
10	1155	28801.000000256	0
10	1166	28801.000000384	1
10	1167	28801.000000384	0
10	1178	28801.000000512	1
10	1179	28801.000000512	0
10	1217	30601	1
10	1219	30601	0
10	1239	30601.000000128	1
10	1240	30601.000000128	0
10	1264	30601.000000256	1
10	1265	30601.000000256	0
10	1289	30601.000000384	1
10	1290	30601.000000384	0
10	1314	30601.000000512	1
10	1315	30601.000000512	0
10	1339	30601.00000064	1
10	1340	30601.00000064	0
10	1364	30601.000000768	1
10	1365	30601.000000768	0
10	1383	32401	1
10	1385	32401	0
10	1407	34201	1
10	1409	34201	0
10	1419	34201.000000128	1
10	1420	34201.000000128	0
10	1431	34201.000000256	1
10	1432	34201.000000256	0
10	1443	34201.000000384	1
10	1444	34201.000000384	0
10	1455	34201.000000512	1
10	1456	34201.000000512	0
10	1484	36001	1
10	1486	36001	0
10	1501	36001.000000128	1
10	1502	36001.000000128	0
10	1520	36001.000000256	1
10	1521	36001.000000256	0
10	1539	36001.000000384	1
10	1540	36001.000000384	0
10	1578	37801	1
10	1580	37801	0
10	1595	37801.000000128	1
10	1596	37801.000000128	0
10	1614	37801.000000256	1
10	1615	37801.000000256	0
10	1633	37801.000000384	1
10	1634	37801.000000384	0
10	1652	37801.000000512	1
10	1653	37801.000000512	0
10	1671	37801.00000064	1
10	1672	37801.00000064	0
10	1690	37801.000000768	1
10	1691	37801.000000768	0
10	1723	39601	1
10	1725	39601	0
10	1745	39601.000000128	1
10	1746	39601.000000128	0
10	2283	41401	1
10	2285	41401	0
10	2305	41401.000000128	1
10	2306	41401.000000128	0
10	2330	41401.000000256	1
10	2331	41401.000000256	0
10	2355	41401.000000384	1
10	2356	41401.000000384	0
10	2380	41401.000000512	1
10	2381	41401.000000512	0
10	2405	41401.00000064	1
10	2406	41401.00000064	0
10	2430	41401.000000768	1
10	2431	41401.000000768	0
10	2455	41401.000000896	1
10	2456	41401.000000896	0
10	2491	43201	1
10	2493	43201	0
10	2508	43201.000000128	1
10	2509	43201.000000128	0
10	2527	43201.000000256	1
10	2528	43201.000000256	0
10	2546	43201.000000384	1
10	2547	43201.000000384	0
10	2568	45001	1
10	2569	45001	2
10	2570	45001	3
10	2571	45001	4
10	2572	45001	5
10	2573	45001	6
10	2574	45001	7
10	2576	45001	6
10	2582	45001.000000128	5
10	2588	45001.000000256	4
10	2594	45001.000000384	3
10	2600	45001.000000512	2
10	2606	45001.00000064	1
10	2612	45001.000000768	0
10	2621	46801	1
10	2622	46801	2
10	2624	46801	1
10	2630	46801.000000128	0
10	2651	48601	1
10	2653	48601	0
10	2668	48601.000000128	1
10	2669	48601.000000128	0
10	2711	50401	1
10	2713	50401	0
10	2728	50401.000000128	1
10	2729	50401.000000128	0
10	2747	50401.000000256	1
10	2748	50401.000000256	0
10	2766	50401.000000384	1
10	2767	50401.000000384	0
10	2785	50401.000000512	1
10	2786	50401.000000512	0
10	2804	50401.00000064	1
10	2805	50401.00000064	0
10	2823	50401.000000768	1
10	2824	50401.000000768	0
10	2842	50401.000000896	1
10	2843	50401.000000896	0
10	2864	52201	1
10	2866	52201	0
10	2901	54001	1
10	2903	54001	0
10	2918	54001.000000128	1
10	2919	54001.000000128	0
10	2937	54001.000000256	1
10	2938	54001.000000256	0
10	2956	54001.000000384	1
10	2957	54001.000000384	0
10	2975	54001.000000512	1
10	2976	54001.000000512	0
10	2994	54001.00000064	1
10	2995	54001.00000064	0
10	3013	54001.000000768	1
10	3014	54001.000000768	0
10	3032	54001.000000896	1
10	3033	54001.000000896	0
10	3056	55801	1
10	3058	55801	0
10	3068	55801.000000128	1
10	3069	55801.000000128	0
10	3101	57601	1
10	3103	57601	0
10	3123	57601.000000128	1
10	3124	57601.000000128	0
10	3148	57601.000000256	1
10	3149	57601.000000256	0
10	3173	57601.000000384	1
10	3174	57601.000000384	0
10	3199	59401	1
10	3200	59401	2
10	3201	59401	3
10	3202	59401	4
10	3203	59401	5
10	3204	59401	6
10	3205	59401	7
10	3206	59401	8
10	3208	59401	7
10	3214	59401.000000128	6
10	3220	59401.000000256	5
10	3226	59401.000000384	4
10	3232	59401.000000512	3
10	3238	59401.00000064	2
10	3244	59401.000000768	1
10	3250	59401.000000896	0
10	3273	61201	1
10	3275	61201	0
10	3290	61201.000000128	1
10	3291	61201.000000128	0
10	3309	61201.000000256	1
10	3310	61201.000000256	0
10	3333	63001	1
10	3335	63001	0
10	3345	63001.000000128	1
10	3346	63001.000000128	0
10	3367	64801	1
10	3369	64801	0
10	3379	64801.000000128	1
10	3380	64801.000000128	0
10	3391	64801.000000256	1
10	3392	64801.000000256	0
10	3409	66601	1
10	3410	66601	2
10	3411	66601	3
10	3412	66601	4
10	3413	66601	5
10	3414	66601	6
10	3415	66601	7
10	3417	66601	6
10	3423	66601.000000128	5
10	3429	66601.000000256	4
10	3435	66601.000000384	3
10	3441	66601.000000512	2
10	3447	66601.00000064	1
10	3453	66601.000000768	0
10	3480	68401	1
10	3482	68401	0
10	3497	68401.000000128	1
10	3498	68401.000000128	0
10	3516	68401.000000256	1
10	3517	68401.000000256	0
10	3535	68401.000000384	1
10	3536	68401.000000384	0
10	3554	68401.000000512	1
10	3555	68401.000000512	0
10	3587	70201	1
10	3589	70201	0
10	3609	70201.000000128	1
10	3610	70201.000000128	0
10	3636	72001	1
10	3638	72001	0
10	3648	72001.000000128	1
10	3649	72001.000000128	0
10	3691	73801	1
10	3693	73801	0
10	3713	73801.000000128	1
10	3714	73801.000000128	0
10	3738	73801.000000256	1
10	3739	73801.000000256	0
10	3763	73801.000000384	1
10	3764	73801.000000384	0
10	3788	73801.000000512	1
10	3789	73801.000000512	0
10	3813	73801.00000064	1
10	3814	73801.00000064	0
10	3838	73801.000000768	1
10	3839	73801.000000768	0
10	3863	73801.000000896	1
10	3864	73801.000000896	0
10	3909	75601	1
10	3911	75601	0
10	3931	75601.000000128	1
10	3932	75601.000000128	0
10	3956	75601.000000256	1
10	3957	75601.000000256	0
10	3981	75601.000000384	1
10	3982	75601.000000384	0
10	4006	75601.000000512	1
10	4007	75601.000000512	0
10	4031	75601.00000064	1
10	4032	75601.00000064	0
10	4056	75601.000000768	1
10	4057	75601.000000768	0
10	4088	77401	1
10	4090	77401	0
10	4105	77401.000000128	1
10	4106	77401.000000128	0
10	4132	79201	1
10	4134	79201	0
10	4164	81001	1
10	4166	81001	0
10	4176	81001.000000128	1
10	4177	81001.000000128	0
10	4188	81001.000000256	1
10	4189	81001.000000256	0
10	4200	81001.000000384	1
10	4201	81001.000000384	0
10	4212	81001.000000512	1
10	4213	81001.000000512	0
10	4224	81001.00000064	1
10	4225	81001.00000064	0
10	4236	81001.000000768	1
10	4237	81001.000000768	0
10	4269	82801	1
10	4271	82801	0
10	4291	82801.000000128	1
10	4292	82801.000000128	0
10	4316	82801.000000256	1
10	4317	82801.000000256	0
10	4341	82801.000000384	1
10	4342	82801.000000384	0
10	4381	84601	1
10	4383	84601	0
10	4398	84601.000000128	1
10	4399	84601.000000128	0
10	4417	84601.000000256	1
10	4418	84601.000000256	0
10	4436	84601.000000384	1
10	4437	84601.000000384	0
10	4455	84601.000000512	1
10	4456	84601.000000512	0
10	4474	84601.00000064	1
10	4475	84601.00000064	0
10	4502	86400	0
11	0	0	0
11	41	1	128
11	43	1	0
11	74	1801	128
11	76	1801	0
11	96	1801.000000128	128
11	97	1801.000000128	0
11	116	3601	128
11	117	3601	256
11	119	3601	128
11	125	3601.000000128	0
11	150	5401	128
11	152	5401	0
11	172	5401.000000128	128
11	173	5401.000000128	0
11	206	7201	128
11	208	7201	0
11	223	7201.000000128	128
11	224	7201.000000128	0
11	242	7201.000000256	128
11	243	7201.000000256	0
11	281	9001	128
11	283	9001	0
11	303	9001.000000128	128
11	304	9001.000000128	0
11	328	9001.000000256	128
11	329	9001.000000256	0
11	353	9001.000000384	128
11	354	9001.000000384	0
11	378	9001.000000512	128
11	379	9001.000000512	0
11	414	10801	128
11	416	10801	0
11	436	10801.000000128	128
11	437	10801.000000128	0
11	484	12601	128
11	486	12601	0
11	506	12601.000000128	128
11	507	12601.000000128	0
11	531	12601.000000256	128
11	532	12601.000000256	0
11	556	12601.000000384	128
11	557	12601.000000384	0
11	581	12601.000000512	128
11	582	12601.000000512	0
11	606	12601.00000064	128
11	607	12601.00000064	0
11	631	12601.000000768	128
11	632	12601.000000768	0
11	656	12601.000000896	128
11	657	12601.000000896	0
11	686	14401	128
11	688	14401	0
11	716	16201	128
11	718	16201	0
11	728	16201.000000128	128
11	729	16201.000000128	0
11	740	16201.000000256	128
11	741	16201.000000256	0
11	752	16201.000000384	128
11	753	16201.000000384	0
11	764	16201.000000512	128
11	765	16201.000000512	0
11	776	16201.00000064	128
11	777	16201.00000064	0
11	800	18001	128
11	802	18001	0
11	812	18001.000000128	128
11	813	18001.000000128	0
11	824	18001.000000256	128
11	825	18001.000000256	0
11	836	18001.000000384	128
11	837	18001.000000384	0
11	868	19801	128
11	870	19801	0
11	880	19801.000000128	128
11	881	19801.000000128	0
11	892	19801.000000256	128
11	893	19801.000000256	0
11	904	19801.000000384	128
11	905	19801.000000384	0
11	916	19801.000000512	128
11	917	19801.000000512	0
11	928	19801.00000064	128
11	929	19801.00000064	0
11	940	19801.000000768	128
11	941	19801.000000768	0
11	952	19801.000000896	128
11	953	19801.000000896	0
11	967	21601	128
11	968	21601	256
11	969	21601	384
11	970	21601	512
11	972	21601	384
11	978	21601.000000128	256
11	984	21601.000000256	128
11	990	21601.000000384	0
11	1002	23401	128
11	1003	23401	256
11	1004	23401	384
11	1005	23401	512
11	1006	23401	640
11	1008	23401	512
11	1014	23401.000000128	384
11	1020	23401.000000256	256
11	1026	23401.000000384	128
11	1032	23401.000000512	0
11	1057	25201	128
11	1059	25201	0
11	1079	25201.000000128	128
11	1080	25201.000000128	0
11	1099	27001	128
11	1100	27001	256
11	1102	27001	128
11	1108	27001.000000128	0
11	1130	28801	128
11	1132	28801	0
11	1142	28801.000000128	128
11	1143	28801.000000128	0
11	1154	28801.000000256	128
11	1155	28801.000000256	0
11	1166	28801.000000384	128
11	1167	28801.000000384	0
11	1178	28801.000000512	128
11	1179	28801.000000512	0
11	1217	30601	128
11	1219	30601	0
11	1239	30601.000000128	128
11	1240	30601.000000128	0
11	1264	30601.000000256	128
11	1265	30601.000000256	0
11	1289	30601.000000384	128
11	1290	30601.000000384	0
11	1314	30601.000000512	128
11	1315	30601.000000512	0
11	1339	30601.00000064	128
11	1340	30601.00000064	0
11	1364	30601.000000768	128
11	1365	30601.000000768	0
11	1383	32401	128
11	1385	32401	0
11	1407	34201	128
11	1409	34201	0
11	1419	34201.000000128	128
11	1420	34201.000000128	0
11	1431	34201.000000256	128
11	1432	34201.000000256	0
11	1443	34201.000000384	128
11	1444	34201.000000384	0
11	1455	34201.000000512	128
11	1456	34201.000000512	0
11	1484	36001	128
11	1486	36001	0
11	1501	36001.000000128	128
11	1502	36001.000000128	0
11	1520	36001.000000256	128
11	1521	36001.000000256	0
11	1539	36001.000000384	128
11	1540	36001.000000384	0
11	1578	37801	128
11	1580	37801	0
11	1595	37801.000000128	128
11	1596	37801.000000128	0
11	1614	37801.000000256	128
11	1615	37801.000000256	0
11	1633	37801.000000384	128
11	1634	37801.000000384	0
11	1652	37801.000000512	128
11	1653	37801.000000512	0
11	1671	37801.00000064	128
11	1672	37801.00000064	0
11	1690	37801.000000768	128
11	1691	37801.000000768	0
11	1723	39601	128
11	1725	39601	0
11	1745	39601.000000128	128
11	1746	39601.000000128	0
11	2283	41401	128
11	2285	41401	0
11	2305	41401.000000128	128
11	2306	41401.000000128	0
11	2330	41401.000000256	128
11	2331	41401.000000256	0
11	2355	41401.000000384	128
11	2356	41401.000000384	0
11	2380	41401.000000512	128
11	2381	41401.000000512	0
11	2405	41401.00000064	128
11	2406	41401.00000064	0
11	2430	41401.000000768	128
11	2431	41401.000000768	0
11	2455	41401.000000896	128
11	2456	41401.000000896	0
11	2491	43201	128
11	2493	43201	0
11	2508	43201.000000128	128
11	2509	43201.000000128	0
11	2527	43201.000000256	128
11	2528	43201.000000256	0
11	2546	43201.000000384	128
11	2547	43201.000000384	0
11	2568	45001	128
11	2569	45001	256
11	2570	45001	384
11	2571	45001	512
11	2572	45001	640
11	2573	45001	768
11	2574	45001	896
11	2576	45001	768
11	2582	45001.000000128	640
11	2588	45001.000000256	512
11	2594	45001.000000384	384
11	2600	45001.000000512	256
11	2606	45001.00000064	128
11	2612	45001.000000768	0
11	2621	46801	128
11	2622	46801	256
11	2624	46801	128
11	2630	46801.000000128	0
11	2651	48601	128
11	2653	48601	0
11	2668	48601.000000128	128
11	2669	48601.000000128	0
11	2711	50401	128
11	2713	50401	0
11	2728	50401.000000128	128
11	2729	50401.000000128	0
11	2747	50401.000000256	128
11	2748	50401.000000256	0
11	2766	50401.000000384	128
11	2767	50401.000000384	0
11	2785	50401.000000512	128
11	2786	50401.000000512	0
11	2804	50401.00000064	128
11	2805	50401.00000064	0
11	2823	50401.000000768	128
11	2824	50401.000000768	0
11	2842	50401.000000896	128
11	2843	50401.000000896	0
11	2864	52201	128
11	2866	52201	0
11	2901	54001	128
11	2903	54001	0
11	2918	54001.000000128	128
11	2919	54001.000000128	0
11	2937	54001.000000256	128
11	2938	54001.000000256	0
11	2956	54001.000000384	128
11	2957	54001.000000384	0
11	2975	54001.000000512	128
11	2976	54001.000000512	0
11	2994	54001.00000064	128
11	2995	54001.00000064	0
11	3013	54001.000000768	128
11	3014	54001.000000768	0
11	3032	54001.000000896	128
11	3033	54001.000000896	0
11	3056	55801	128
11	3058	55801	0
11	3068	55801.000000128	128
11	3069	55801.000000128	0
11	3101	57601	128
11	3103	57601	0
11	3123	57601.000000128	128
11	3124	57601.000000128	0
11	3148	57601.000000256	128
11	3149	57601.000000256	0
11	3173	57601.000000384	128
11	3174	57601.000000384	0
11	3199	59401	128
11	3200	59401	256
11	3201	59401	384
11	3202	59401	512
11	3203	59401	640
11	3204	59401	768
11	3205	59401	896
11	3206	59401	1024
11	3208	59401	896
11	3214	59401.000000128	768
11	3220	59401.000000256	640
11	3226	59401.000000384	512
11	3232	59401.000000512	384
11	3238	59401.00000064	256
11	3244	59401.000000768	128
11	3250	59401.000000896	0
11	3273	61201	128
11	3275	61201	0
11	3290	61201.000000128	128
11	3291	61201.000000128	0
11	3309	61201.000000256	128
11	3310	61201.000000256	0
11	3333	63001	128
11	3335	63001	0
11	3345	63001.000000128	128
11	3346	63001.000000128	0
11	3367	64801	128
11	3369	64801	0
11	3379	64801.000000128	128
11	3380	64801.000000128	0
11	3391	64801.000000256	128
11	3392	64801.000000256	0
11	3409	66601	128
11	3410	66601	256
11	3411	66601	384
11	3412	66601	512
11	3413	66601	640
11	3414	66601	768
11	3415	66601	896
11	3417	66601	768
11	3423	66601.000000128	640
11	3429	66601.000000256	512
11	3435	66601.000000384	384
11	3441	66601.000000512	256
11	3447	66601.00000064	128
11	3453	66601.000000768	0
11	3480	68401	128
11	3482	68401	0
11	3497	68401.000000128	128
11	3498	68401.000000128	0
11	3516	68401.000000256	128
11	3517	68401.000000256	0
11	3535	68401.000000384	128
11	3536	68401.000000384	0
11	3554	68401.000000512	128
11	3555	68401.000000512	0
11	3587	70201	128
11	3589	70201	0
11	3609	70201.000000128	128
11	3610	70201.000000128	0
11	3636	72001	128
11	3638	72001	0
11	3648	72001.000000128	128
11	3649	72001.000000128	0
11	3691	73801	128
11	3693	73801	0
11	3713	73801.000000128	128
11	3714	73801.000000128	0
11	3738	73801.000000256	128
11	3739	73801.000000256	0
11	3763	73801.000000384	128
11	3764	73801.000000384	0
11	3788	73801.000000512	128
11	3789	73801.000000512	0
11	3813	73801.00000064	128
11	3814	73801.00000064	0
11	3838	73801.000000768	128
11	3839	73801.000000768	0
11	3863	73801.000000896	128
11	3864	73801.000000896	0
11	3909	75601	128
11	3911	75601	0
11	3931	75601.000000128	128
11	3932	75601.000000128	0
11	3956	75601.000000256	128
11	3957	75601.000000256	0
11	3981	75601.000000384	128
11	3982	75601.000000384	0
11	4006	75601.000000512	128
11	4007	75601.000000512	0
11	4031	75601.00000064	128
11	4032	75601.00000064	0
11	4056	75601.000000768	128
11	4057	75601.000000768	0
11	4088	77401	128
11	4090	77401	0
11	4105	77401.000000128	128
11	4106	77401.000000128	0
11	4132	79201	128
11	4134	79201	0
11	4164	81001	128
11	4166	81001	0
11	4176	81001.000000128	128
11	4177	81001.000000128	0
11	4188	81001.000000256	128
11	4189	81001.000000256	0
11	4200	81001.000000384	128
11	4201	81001.000000384	0
11	4212	81001.000000512	128
11	4213	81001.000000512	0
11	4224	81001.00000064	128
11	4225	81001.00000064	0
11	4236	81001.000000768	128
11	4237	81001.000000768	0
11	4269	82801	128
11	4271	82801	0
11	4291	82801.000000128	128
11	4292	82801.000000128	0
11	4316	82801.000000256	128
11	4317	82801.000000256	0
11	4341	82801.000000384	128
11	4342	82801.000000384	0
11	4381	84601	128
11	4383	84601	0
11	4398	84601.000000128	128
11	4399	84601.000000128	0
11	4417	84601.000000256	128
11	4418	84601.000000256	0
11	4436	84601.000000384	128
11	4437	84601.000000384	0
11	4455	84601.000000512	128
11	4456	84601.000000512	0
11	4474	84601.00000064	128
11	4475	84601.00000064	0
11	4502	86400	0
12	0	0	0
12	4502	86400	0
13	0	0	0
13	4502	86400	0
14	26	1	2
14	58	1801	0
14	59	1801	0
14	262	9001	0
14	263	9001	0
14	264	9001	0
14	265	9001	0
14	266	9001	0
14	398	10801	0
14	399	10801	0
14	462	12601	0
14	463	12601	0
14	464	12601	0
14	465	12601	0
14	466	12601	0
14	467	12601	0
14	468	12601	0
14	469	12601	0
14	1707	39601	0
14	1708	39601	0
14	3668	73801	0
14	3669	73801	0
14	3670	73801	0
14	3671	73801	0
14	3672	73801	0
14	3673	73801	0
14	3674	73801	0
14	3675	73801	0
14	3676	73801	0
14	3888	75601	0
14	3889	75601	0
14	3890	75601	0
14	3891	75601	0
14	3892	75601	0
14	3893	75601	0
14	3894	75601	0
14	4251	82801	0
14	4252	82801	0
14	4253	82801	0
14	4254	82801	0
15	26	1	7
15	58	1801	0
15	59	1801	0
15	262	9001	0
15	263	9001	0
15	264	9001	0
15	265	9001	0
15	266	9001	0
15	398	10801	0
15	399	10801	0
15	462	12601	0
15	463	12601	0
15	464	12601	0
15	465	12601	0
15	466	12601	0
15	467	12601	0
15	468	12601	0
15	469	12601	0
15	1707	39601	0
15	1708	39601	0
15	3668	73801	0
15	3669	73801	0
15	3670	73801	0
15	3671	73801	0
15	3672	73801	0
15	3673	73801	0
15	3674	73801	0
15	3675	73801	0
15	3676	73801	0
15	3888	75601	0
15	3889	75601	0
15	3890	75601	0
15	3891	75601	0
15	3892	75601	0
15	3893	75601	0
15	3894	75601	0
15	4251	82801	0
15	4252	82801	0
15	4253	82801	0
15	4254	82801	0
16	26	1	1
16	58	1801	0
16	59	1801	0
16	262	9001	0
16	263	9001	0
16	264	9001	0
16	265	9001	0
16	266	9001	0
16	398	10801	0
16	399	10801	0
16	462	12601	0
16	463	12601	0
16	464	12601	0
16	465	12601	0
16	466	12601	0
16	467	12601	0
16	468	12601	0
16	469	12601	0
16	1707	39601	0
16	1708	39601	0
16	3668	73801	0
16	3669	73801	0
16	3670	73801	0
16	3671	73801	0
16	3672	73801	0
16	3673	73801	0
16	3674	73801	0
16	3675	73801	0
16	3676	73801	0
16	3888	75601	0
16	3889	75601	0
16	3890	75601	0
16	3891	75601	0
16	3892	75601	0
16	3893	75601	0
16	3894	75601	0
16	4251	82801	0
16	4252	82801	0
16	4253	82801	0
16	4254	82801	0
17	26	1	1
17	58	1801	1
17	59	1801	1
17	262	9001	1
17	263	9001	1
17	264	9001	1
17	265	9001	1
17	266	9001	1
17	398	10801	1
17	399	10801	1
17	462	12601	1
17	463	12601	1
17	464	12601	1
17	465	12601	1
17	466	12601	1
17	467	12601	1
17	468	12601	1
17	469	12601	1
17	1707	39601	1
17	1708	39601	1
17	3668	73801	1
17	3669	73801	1
17	3670	73801	1
17	3671	73801	1
17	3672	73801	1
17	3673	73801	1
17	3674	73801	1
17	3675	73801	1
17	3676	73801	1
17	3888	75601	1
17	3889	75601	1
17	3890	75601	1
17	3891	75601	1
17	3892	75601	1
17	3893	75601	1
17	3894	75601	1
17	4251	82801	1
17	4252	82801	1
17	4253	82801	1
17	4254	82801	1
18	26	1	1
18	58	1801	1
18	59	1801	1
18	262	9001	1
18	263	9001	1
18	264	9001	1
18	265	9001	1
18	266	9001	1
18	398	10801	1
18	399	10801	1
18	462	12601	1
18	463	12601	1
18	464	12601	1
18	465	12601	1
18	466	12601	1
18	467	12601	1
18	468	12601	1
18	469	12601	1
18	1707	39601	1
18	1708	39601	1
18	3668	73801	1
18	3669	73801	1
18	3670	73801	1
18	3671	73801	1
18	3672	73801	1
18	3673	73801	1
18	3674	73801	1
18	3675	73801	1
18	3676	73801	1
18	3888	75601	1
18	3889	75601	1
18	3890	75601	1
18	3891	75601	1
18	3892	75601	1
18	3893	75601	1
18	3894	75601	1
18	4251	82801	1
18	4252	82801	1
18	4253	82801	1
18	4254	82801	1
19	26	1	0
19	58	1801	0
19	59	1801	0
19	262	9001	0
19	263	9001	0
19	264	9001	0
19	265	9001	0
19	266	9001	0
19	398	10801	0
19	399	10801	0
19	462	12601	0
19	463	12601	0
19	464	12601	0
19	465	12601	0
19	466	12601	0
19	467	12601	0
19	468	12601	0
19	469	12601	0
19	1707	39601	0
19	1708	39601	0
19	3668	73801	0
19	3669	73801	0
19	3670	73801	0
19	3671	73801	0
19	3672	73801	0
19	3673	73801	0
19	3674	73801	0
19	3675	73801	0
19	3676	73801	1
19	3888	75601	1
19	3889	75601	1
19	3890	75601	1
19	3891	75601	1
19	3892	75601	1
19	3893	75601	1
19	3894	75601	1
19	4251	82801	1
19	4252	82801	1
19	4253	82801	1
19	4254	82801	1
20	30	1	0
20	63	1801	0
20	88	1801.000000128	0
20	193	7201	2
20	194	7201	0
20	195	7201	0
20	270	9001	0
20	295	9001.000000128	0
20	320	9001.000000256	0
20	345	9001.000000384	0
20	370	9001.000000512	0
20	403	10801	0
20	428	10801.000000128	0
20	473	12601	0
20	498	12601.000000128	0
20	523	12601.000000256	0
20	548	12601.000000384	0
20	573	12601.000000512	0
20	598	12601.00000064	0
20	623	12601.000000768	0
20	648	12601.000000896	0
20	1470	36001	0
20	1471	36001	0
20	1472	36001	0
20	1473	36001	0
20	1561	37801	0
20	1562	37801	0
20	1563	37801	0
20	1564	37801	0
20	1565	37801	0
20	1566	37801	0
20	1567	37801	0
20	1712	39601	0
20	1737	39601.000000128	0
20	2477	43201	0
20	2478	43201	0
20	2479	43201	0
20	2480	43201	0
20	2639	48601	0
20	2640	48601	0
20	2692	50401	0
20	2693	50401	0
20	2694	50401	0
20	2695	50401	0
20	2696	50401	0
20	2697	50401	0
20	2698	50401	0
20	2699	50401	0
20	2700	50401	0
20	2883	54001	0
20	2884	54001	0
20	2885	54001	0
20	2886	54001	0
20	2887	54001	0
20	2888	54001	0
20	2889	54001	0
20	2890	54001	0
20	3680	73801	0
20	3705	73801.000000128	0
20	3730	73801.000000256	0
20	3755	73801.000000384	0
20	3780	73801.000000512	0
20	3805	73801.00000064	0
20	3830	73801.000000768	0
20	3855	73801.000000896	0
20	3898	75601	0
20	3923	75601.000000128	0
20	3948	75601.000000256	0
20	3973	75601.000000384	0
20	3998	75601.000000512	0
20	4023	75601.00000064	0
20	4048	75601.000000768	0
20	4121	79201	0
20	4258	82801	0
20	4283	82801.000000128	0
20	4308	82801.000000256	0
20	4333	82801.000000384	0
21	30	1	0
21	63	1801	0
21	88	1801.000000128	0
21	193	7201	8
21	194	7201	0
21	195	7201	0
21	270	9001	0
21	295	9001.000000128	0
21	320	9001.000000256	0
21	345	9001.000000384	0
21	370	9001.000000512	0
21	403	10801	0
21	428	10801.000000128	0
21	473	12601	0
21	498	12601.000000128	0
21	523	12601.000000256	0
21	548	12601.000000384	0
21	573	12601.000000512	0
21	598	12601.00000064	0
21	623	12601.000000768	0
21	648	12601.000000896	0
21	1470	36001	0
21	1471	36001	0
21	1472	36001	0
21	1473	36001	0
21	1561	37801	0
21	1562	37801	0
21	1563	37801	0
21	1564	37801	0
21	1565	37801	0
21	1566	37801	0
21	1567	37801	0
21	1712	39601	0
21	1737	39601.000000128	0
21	2477	43201	0
21	2478	43201	0
21	2479	43201	0
21	2480	43201	0
21	2639	48601	0
21	2640	48601	0
21	2692	50401	0
21	2693	50401	0
21	2694	50401	0
21	2695	50401	0
21	2696	50401	0
21	2697	50401	0
21	2698	50401	0
21	2699	50401	0
21	2700	50401	0
21	2883	54001	0
21	2884	54001	0
21	2885	54001	0
21	2886	54001	0
21	2887	54001	0
21	2888	54001	0
21	2889	54001	0
21	2890	54001	0
21	3680	73801	0
21	3705	73801.000000128	0
21	3730	73801.000000256	0
21	3755	73801.000000384	0
21	3780	73801.000000512	0
21	3805	73801.00000064	0
21	3830	73801.000000768	0
21	3855	73801.000000896	0
21	3898	75601	0
21	3923	75601.000000128	0
21	3948	75601.000000256	0
21	3973	75601.000000384	0
21	3998	75601.000000512	0
21	4023	75601.00000064	0
21	4048	75601.000000768	0
21	4121	79201	0
21	4258	82801	0
21	4283	82801.000000128	0
21	4308	82801.000000256	0
21	4333	82801.000000384	0
22	30	1	0
22	63	1801	0
22	88	1801.000000128	0
22	193	7201	1
22	194	7201	0
22	195	7201	0
22	270	9001	0
22	295	9001.000000128	0
22	320	9001.000000256	0
22	345	9001.000000384	0
22	370	9001.000000512	0
22	403	10801	0
22	428	10801.000000128	0
22	473	12601	0
22	498	12601.000000128	0
22	523	12601.000000256	0
22	548	12601.000000384	0
22	573	12601.000000512	0
22	598	12601.00000064	0
22	623	12601.000000768	0
22	648	12601.000000896	0
22	1470	36001	0
22	1471	36001	0
22	1472	36001	0
22	1473	36001	0
22	1561	37801	0
22	1562	37801	0
22	1563	37801	0
22	1564	37801	0
22	1565	37801	0
22	1566	37801	0
22	1567	37801	0
22	1712	39601	0
22	1737	39601.000000128	0
22	2477	43201	0
22	2478	43201	0
22	2479	43201	0
22	2480	43201	0
22	2639	48601	0
22	2640	48601	0
22	2692	50401	0
22	2693	50401	0
22	2694	50401	0
22	2695	50401	0
22	2696	50401	0
22	2697	50401	0
22	2698	50401	0
22	2699	50401	0
22	2700	50401	0
22	2883	54001	0
22	2884	54001	0
22	2885	54001	0
22	2886	54001	0
22	2887	54001	0
22	2888	54001	0
22	2889	54001	0
22	2890	54001	0
22	3680	73801	0
22	3705	73801.000000128	0
22	3730	73801.000000256	0
22	3755	73801.000000384	0
22	3780	73801.000000512	0
22	3805	73801.00000064	0
22	3830	73801.000000768	0
22	3855	73801.000000896	0
22	3898	75601	0
22	3923	75601.000000128	0
22	3948	75601.000000256	0
22	3973	75601.000000384	0
22	3998	75601.000000512	0
22	4023	75601.00000064	0
22	4048	75601.000000768	0
22	4121	79201	0
22	4258	82801	0
22	4283	82801.000000128	0
22	4308	82801.000000256	0
22	4333	82801.000000384	0
23	30	1	0
23	63	1801	0
23	88	1801.000000128	0
23	193	7201	1
23	194	7201	1
23	195	7201	1
23	270	9001	0
23	295	9001.000000128	0
23	320	9001.000000256	0
23	345	9001.000000384	0
23	370	9001.000000512	0
23	403	10801	0
23	428	10801.000000128	0
23	473	12601	0
23	498	12601.000000128	0
23	523	12601.000000256	0
23	548	12601.000000384	0
23	573	12601.000000512	0
23	598	12601.00000064	0
23	623	12601.000000768	0
23	648	12601.000000896	0
23	1470	36001	1
23	1471	36001	1
23	1472	36001	1
23	1473	36001	1
23	1561	37801	1
23	1562	37801	1
23	1563	37801	1
23	1564	37801	1
23	1565	37801	1
23	1566	37801	1
23	1567	37801	1
23	1712	39601	0
23	1737	39601.000000128	0
23	2477	43201	1
23	2478	43201	1
23	2479	43201	1
23	2480	43201	1
23	2639	48601	1
23	2640	48601	1
23	2692	50401	1
23	2693	50401	1
23	2694	50401	1
23	2695	50401	1
23	2696	50401	1
23	2697	50401	1
23	2698	50401	1
23	2699	50401	1
23	2700	50401	1
23	2883	54001	1
23	2884	54001	1
23	2885	54001	1
23	2886	54001	1
23	2887	54001	1
23	2888	54001	1
23	2889	54001	1
23	2890	54001	1
23	3680	73801	0
23	3705	73801.000000128	0
23	3730	73801.000000256	0
23	3755	73801.000000384	0
23	3780	73801.000000512	0
23	3805	73801.00000064	0
23	3830	73801.000000768	0
23	3855	73801.000000896	0
23	3898	75601	0
23	3923	75601.000000128	0
23	3948	75601.000000256	0
23	3973	75601.000000384	0
23	3998	75601.000000512	0
23	4023	75601.00000064	0
23	4048	75601.000000768	0
23	4121	79201	1
23	4258	82801	0
23	4283	82801.000000128	0
23	4308	82801.000000256	0
23	4333	82801.000000384	0
24	30	1	1
24	63	1801	1
24	88	1801.000000128	1
24	193	7201	1
24	194	7201	1
24	195	7201	1
24	270	9001	1
24	295	9001.000000128	1
24	320	9001.000000256	1
24	345	9001.000000384	1
24	370	9001.000000512	1
24	403	10801	1
24	428	10801.000000128	1
24	473	12601	1
24	498	12601.000000128	1
24	523	12601.000000256	1
24	548	12601.000000384	1
24	573	12601.000000512	1
24	598	12601.00000064	1
24	623	12601.000000768	1
24	648	12601.000000896	1
24	1470	36001	1
24	1471	36001	1
24	1472	36001	1
24	1473	36001	1
24	1561	37801	1
24	1562	37801	1
24	1563	37801	1
24	1564	37801	1
24	1565	37801	1
24	1566	37801	1
24	1567	37801	1
24	1712	39601	1
24	1737	39601.000000128	1
24	2477	43201	1
24	2478	43201	1
24	2479	43201	1
24	2480	43201	1
24	2639	48601	1
24	2640	48601	1
24	2692	50401	1
24	2693	50401	1
24	2694	50401	1
24	2695	50401	1
24	2696	50401	1
24	2697	50401	1
24	2698	50401	1
24	2699	50401	1
24	2700	50401	1
24	2883	54001	1
24	2884	54001	1
24	2885	54001	1
24	2886	54001	1
24	2887	54001	1
24	2888	54001	1
24	2889	54001	1
24	2890	54001	1
24	3680	73801	1
24	3705	73801.000000128	1
24	3730	73801.000000256	1
24	3755	73801.000000384	1
24	3780	73801.000000512	1
24	3805	73801.00000064	1
24	3830	73801.000000768	1
24	3855	73801.000000896	1
24	3898	75601	1
24	3923	75601.000000128	1
24	3948	75601.000000256	1
24	3973	75601.000000384	1
24	3998	75601.000000512	1
24	4023	75601.00000064	1
24	4048	75601.000000768	1
24	4121	79201	1
24	4258	82801	1
24	4283	82801.000000128	1
24	4308	82801.000000256	1
24	4333	82801.000000384	1
25	30	1	0
25	63	1801	0
25	88	1801.000000128	0
25	193	7201	0
25	194	7201	0
25	195	7201	0
25	270	9001	0
25	295	9001.000000128	0
25	320	9001.000000256	0
25	345	9001.000000384	0
25	370	9001.000000512	0
25	403	10801	0
25	428	10801.000000128	0
25	473	12601	0
25	498	12601.000000128	0
25	523	12601.000000256	0
25	548	12601.000000384	0
25	573	12601.000000512	0
25	598	12601.00000064	0
25	623	12601.000000768	0
25	648	12601.000000896	0
25	1470	36001	0
25	1471	36001	0
25	1472	36001	0
25	1473	36001	0
25	1561	37801	0
25	1562	37801	0
25	1563	37801	0
25	1564	37801	0
25	1565	37801	0
25	1566	37801	0
25	1567	37801	0
25	1712	39601	0
25	1737	39601.000000128	0
25	2477	43201	0
25	2478	43201	0
25	2479	43201	0
25	2480	43201	0
25	2639	48601	0
25	2640	48601	0
25	2692	50401	0
25	2693	50401	0
25	2694	50401	0
25	2695	50401	0
25	2696	50401	0
25	2697	50401	0
25	2698	50401	0
25	2699	50401	0
25	2700	50401	1
25	2883	54001	1
25	2884	54001	1
25	2885	54001	1
25	2886	54001	1
25	2887	54001	1
25	2888	54001	1
25	2889	54001	1
25	2890	54001	1
25	3680	73801	1
25	3705	73801.000000128	1
25	3730	73801.000000256	1
25	3755	73801.000000384	1
25	3780	73801.000000512	1
25	3805	73801.00000064	1
25	3830	73801.000000768	1
25	3855	73801.000000896	1
25	3898	75601	1
25	3923	75601.000000128	1
25	3948	75601.000000256	1
25	3973	75601.000000384	1
25	3998	75601.000000512	1
25	4023	75601.00000064	1
25	4048	75601.000000768	1
25	4121	79201	1
25	4258	82801	1
25	4283	82801.000000128	1
25	4308	82801.000000256	1
[...]
41	2180	41401	0
41	2181	41401	0
41	2182	41401	0
41	2183	41401	0
41	2184	41401	0
41	2185	41401	0
41	2186	41401	0
41	2187	41401	0
41	2188	41401	0
41	2189	41401	0
41	2190	41401	0
41	2191	41401	0
41	2192	41401	0
41	2193	41401	0
41	2194	41401	0
41	2195	41401	0
41	2196	41401	0
41	2197	41401	0
41	2198	41401	0
41	2199	41401	0
41	2200	41401	0
41	2201	41401	0
41	2202	41401	0
41	2203	41401	0
41	2204	41401	0
41	2205	41401	0
41	2206	41401	0
41	2207	41401	0
41	2208	41401	0
41	2209	41401	0
41	2210	41401	0
41	2211	41401	0
41	2212	41401	0
41	2213	41401	0
41	2214	41401	0
41	2215	41401	0
41	2216	41401	0
41	2217	41401	0
41	2218	41401	0
41	2219	41401	0
41	2220	41401	0
41	2221	41401	0
41	2222	41401	0
41	2223	41401	0
41	2224	41401	0
41	2225	41401	0
41	2226	41401	0
41	2227	41401	0
41	2228	41401	0
41	2229	41401	0
41	2230	41401	0
41	2231	41401	0
41	2232	41401	0
41	2233	41401	0
41	2234	41401	0
41	2235	41401	0
41	2236	41401	0
41	2237	41401	0
41	2238	41401	0
41	2239	41401	0
41	2240	41401	0
41	2241	41401	0
41	2242	41401	0
41	2243	41401	0
41	2244	41401	0
41	2245	41401	0
41	2246	41401	0
41	2247	41401	0
41	2248	41401	0
41	2249	41401	0
41	2250	41401	0
41	2251	41401	0
41	2252	41401	0
41	2253	41401	0
41	2254	41401	0
41	2255	41401	0
41	2256	41401	0
41	2257	41401	0
41	2258	41401	0
41	2259	41401	0
41	2260	41401	0
41	2261	41401	0
41	2262	41401	0
41	2263	41401	0
41	2264	41401	0
41	2265	41401	0
41	2266	41401	0
41	2267	41401	0
41	2268	41401	0
41	3083	57601	0
41	3084	57601	0
41	3085	57601	0
41	3086	57601	0
41	3571	70201	0
41	3572	70201	0
42	134	5401	1
42	135	5401	1
42	1041	25201	1
42	1042	25201	1
42	1196	30601	1
42	1197	30601	1
42	1198	30601	1
42	1199	30601	1
42	1200	30601	1
42	1201	30601	1
42	1202	30601	1
42	2016	41401	1
42	2017	41401	1
42	2018	41401	1
42	2019	41401	1
42	2020	41401	1
42	2021	41401	1
42	2022	41401	1
42	2023	41401	1
42	2024	41401	1
42	2025	41401	1
42	2026	41401	1
42	2027	41401	1
42	2028	41401	1
42	2029	41401	1
42	2030	41401	1
42	2031	41401	1
42	2032	41401	1
42	2033	41401	1
42	2034	41401	1
42	2035	41401	1
42	2036	41401	1
42	2037	41401	1
42	2038	41401	1
42	2039	41401	1
42	2040	41401	1
42	2041	41401	1
42	2042	41401	1
42	2043	41401	1
42	2044	41401	1
42	2045	41401	1
42	2046	41401	1
42	2047	41401	1
42	2048	41401	1
42	2049	41401	1
42	2050	41401	1
42	2051	41401	1
42	2052	41401	1
42	2053	41401	1
42	2054	41401	1
42	2055	41401	1
42	2056	41401	1
42	2057	41401	1
42	2058	41401	1
42	2059	41401	1
42	2060	41401	1
42	2061	41401	1
42	2062	41401	1
42	2063	41401	1
42	2064	41401	1
42	2065	41401	1
42	2066	41401	1
42	2067	41401	1
42	2068	41401	1
42	2069	41401	1
42	2070	41401	1
42	2071	41401	1
42	2072	41401	1
42	2073	41401	1
42	2074	41401	1
42	2075	41401	1
42	2076	41401	1
42	2077	41401	1
42	2078	41401	1
42	2079	41401	1
42	2080	41401	1
42	2081	41401	1
42	2082	41401	1
42	2083	41401	1
42	2084	41401	1
42	2085	41401	1
42	2086	41401	1
42	2087	41401	1
42	2088	41401	1
42	2089	41401	1
42	2090	41401	1
42	2091	41401	1
42	2092	41401	1
42	2093	41401	1
42	2094	41401	1
42	2095	41401	1
42	2096	41401	1
42	2097	41401	1
42	2098	41401	1
42	2099	41401	1
42	2100	41401	1
42	2101	41401	1
42	2102	41401	1
42	2103	41401	1
42	2104	41401	1
42	2105	41401	1
42	2106	41401	1
42	2107	41401	1
42	2108	41401	1
42	2109	41401	1
42	2110	41401	1
42	2111	41401	1
42	2112	41401	1
42	2113	41401	1
42	2114	41401	1
42	2115	41401	1
42	2116	41401	1
42	2117	41401	1
42	2118	41401	1
42	2119	41401	1
42	2120	41401	1
42	2121	41401	1
42	2122	41401	1
42	2123	41401	1
42	2124	41401	1
42	2125	41401	1
42	2126	41401	1
42	2127	41401	1
42	2128	41401	1
42	2129	41401	1
42	2130	41401	1
42	2131	41401	1
42	2132	41401	1
42	2133	41401	1
42	2134	41401	1
42	2135	41401	1
42	2136	41401	1
42	2137	41401	1
42	2138	41401	1
42	2139	41401	1
42	2140	41401	1
42	2141	41401	1
42	2142	41401	1
42	2143	41401	1
42	2144	41401	1
42	2145	41401	1
42	2146	41401	1
42	2147	41401	1
42	2148	41401	1
42	2149	41401	1
42	2150	41401	1
42	2151	41401	1
42	2152	41401	1
42	2153	41401	1
42	2154	41401	1
42	2155	41401	1
42	2156	41401	1
42	2157	41401	1
42	2158	41401	1
42	2159	41401	1
42	2160	41401	1
42	2161	41401	1
42	2162	41401	1
42	2163	41401	1
42	2164	41401	1
42	2165	41401	1
42	2166	41401	1
42	2167	41401	1
42	2168	41401	1
42	2169	41401	1
42	2170	41401	1
42	2171	41401	1
42	2172	41401	1
42	2173	41401	1
42	2174	41401	1
42	2175	41401	1
42	2176	41401	1
42	2177	41401	1
42	2178	41401	1
42	2179	41401	1
42	2180	41401	1
42	2181	41401	1
42	2182	41401	1
42	2183	41401	1
42	2184	41401	1
42	2185	41401	1
42	2186	41401	1
42	2187	41401	1
42	2188	41401	1
42	2189	41401	1
42	2190	41401	1
42	2191	41401	1
42	2192	41401	1
42	2193	41401	1
42	2194	41401	1
42	2195	41401	1
42	2196	41401	1
42	2197	41401	1
42	2198	41401	1
42	2199	41401	1
42	2200	41401	1
42	2201	41401	1
42	2202	41401	1
42	2203	41401	1
42	2204	41401	1
42	2205	41401	1
42	2206	41401	1
42	2207	41401	1
42	2208	41401	1
42	2209	41401	1
42	2210	41401	1
42	2211	41401	1
42	2212	41401	1
42	2213	41401	1
42	2214	41401	1
42	2215	41401	1
42	2216	41401	1
42	2217	41401	1
42	2218	41401	1
42	2219	41401	1
42	2220	41401	1
42	2221	41401	1
42	2222	41401	1
42	2223	41401	1
42	2224	41401	1
42	2225	41401	1
42	2226	41401	1
42	2227	41401	1
42	2228	41401	1
42	2229	41401	1
42	2230	41401	1
42	2231	41401	1
42	2232	41401	1
42	2233	41401	1
42	2234	41401	1
42	2235	41401	1
42	2236	41401	1
42	2237	41401	1
42	2238	41401	1
42	2239	41401	1
42	2240	41401	1
42	2241	41401	1
42	2242	41401	1
42	2243	41401	1
42	2244	41401	1
42	2245	41401	1
42	2246	41401	1
42	2247	41401	1
42	2248	41401	1
42	2249	41401	1
42	2250	41401	1
42	2251	41401	1
42	2252	41401	1
42	2253	41401	1
42	2254	41401	1
42	2255	41401	1
42	2256	41401	1
42	2257	41401	1
42	2258	41401	1
42	2259	41401	1
42	2260	41401	1
42	2261	41401	1
42	2262	41401	1
42	2263	41401	1
42	2264	41401	1
42	2265	41401	1
42	2266	41401	1
42	2267	41401	1
42	2268	41401	1
42	3083	57601	1
42	3084	57601	1
42	3085	57601	1
42	3086	57601	1
42	3571	70201	1
42	3572	70201	1
43	134	5401	1
43	135	5401	1
43	1041	25201	1
43	1042	25201	1
43	1196	30601	1
43	1197	30601	1
43	1198	30601	1
43	1199	30601	1
43	1200	30601	1
43	1201	30601	1
43	1202	30601	1
43	2016	41401	1
43	2017	41401	1
43	2018	41401	1
43	2019	41401	1
43	2020	41401	1
43	2021	41401	1
43	2022	41401	1
43	2023	41401	1
43	2024	41401	1
43	2025	41401	1
43	2026	41401	1
43	2027	41401	1
43	2028	41401	1
43	2029	41401	1
43	2030	41401	1
43	2031	41401	1
43	2032	41401	1
43	2033	41401	1
43	2034	41401	1
43	2035	41401	1
43	2036	41401	1
43	2037	41401	1
43	2038	41401	1
43	2039	41401	1
43	2040	41401	1
43	2041	41401	1
43	2042	41401	1
43	2043	41401	1
43	2044	41401	1
43	2045	41401	1
43	2046	41401	1
43	2047	41401	1
43	2048	41401	1
43	2049	41401	1
43	2050	41401	1
43	2051	41401	1
43	2052	41401	1
43	2053	41401	1
43	2054	41401	1
43	2055	41401	1
43	2056	41401	1
43	2057	41401	1
43	2058	41401	1
43	2059	41401	1
43	2060	41401	1
43	2061	41401	1
43	2062	41401	1
43	2063	41401	1
43	2064	41401	1
43	2065	41401	1
43	2066	41401	1
43	2067	41401	1
43	2068	41401	1
43	2069	41401	1
43	2070	41401	1
43	2071	41401	1
43	2072	41401	1
43	2073	41401	1
43	2074	41401	1
43	2075	41401	1
43	2076	41401	1
43	2077	41401	1
43	2078	41401	1
43	2079	41401	1
43	2080	41401	1
43	2081	41401	1
43	2082	41401	1
43	2083	41401	1
43	2084	41401	1
43	2085	41401	1
43	2086	41401	1
43	2087	41401	1
43	2088	41401	1
43	2089	41401	1
43	2090	41401	1
43	2091	41401	1
43	2092	41401	1
43	2093	41401	1
43	2094	41401	1
43	2095	41401	1
43	2096	41401	1
43	2097	41401	1
43	2098	41401	1
43	2099	41401	1
43	2100	41401	1
43	2101	41401	1
43	2102	41401	1
43	2103	41401	1
43	2104	41401	1
43	2105	41401	1
43	2106	41401	1
43	2107	41401	1
43	2108	41401	1
43	2109	41401	1
43	2110	41401	1
43	2111	41401	1
43	2112	41401	1
43	2113	41401	1
43	2114	41401	1
43	2115	41401	1
43	2116	41401	1
43	2117	41401	1
43	2118	41401	1
43	2119	41401	1
43	2120	41401	1
43	2121	41401	1
43	2122	41401	1
43	2123	41401	1
43	2124	41401	1
43	2125	41401	1
43	2126	41401	1
43	2127	41401	1
43	2128	41401	1
43	2129	41401	1
43	2130	41401	1
43	2131	41401	1
43	2132	41401	1
43	2133	41401	1
43	2134	41401	1
43	2135	41401	1
43	2136	41401	1
43	2137	41401	1
43	2138	41401	1
43	2139	41401	1
43	2140	41401	1
43	2141	41401	1
43	2142	41401	1
43	2143	41401	1
43	2144	41401	1
43	2145	41401	1
43	2146	41401	1
43	2147	41401	1
43	2148	41401	1
43	2149	41401	1
43	2150	41401	1
43	2151	41401	1
43	2152	41401	1
43	2153	41401	1
43	2154	41401	1
43	2155	41401	1
43	2156	41401	1
43	2157	41401	1
43	2158	41401	1
43	2159	41401	1
43	2160	41401	1
43	2161	41401	1
43	2162	41401	1
43	2163	41401	1
43	2164	41401	1
43	2165	41401	1
43	2166	41401	1
43	2167	41401	1
43	2168	41401	1
43	2169	41401	1
43	2170	41401	1
43	2171	41401	1
43	2172	41401	1
43	2173	41401	1
43	2174	41401	1
43	2175	41401	1
43	2176	41401	1
43	2177	41401	1
43	2178	41401	1
43	2179	41401	1
43	2180	41401	1
43	2181	41401	1
43	2182	41401	1
43	2183	41401	1
43	2184	41401	1
43	2185	41401	1
43	2186	41401	1
43	2187	41401	1
43	2188	41401	1
43	2189	41401	1
43	2190	41401	1
43	2191	41401	1
43	2192	41401	1
43	2193	41401	1
43	2194	41401	1
43	2195	41401	1
43	2196	41401	1
43	2197	41401	1
43	2198	41401	1
43	2199	41401	1
43	2200	41401	1
43	2201	41401	1
43	2202	41401	1
43	2203	41401	1
43	2204	41401	1
43	2205	41401	1
43	2206	41401	1
43	2207	41401	1
43	2208	41401	1
43	2209	41401	1
43	2210	41401	1
43	2211	41401	1
43	2212	41401	1
43	2213	41401	1
43	2214	41401	1
43	2215	41401	1
43	2216	41401	1
43	2217	41401	1
43	2218	41401	1
43	2219	41401	1
43	2220	41401	1
43	2221	41401	1
43	2222	41401	1
43	2223	41401	1
43	2224	41401	1
43	2225	41401	1
43	2226	41401	1
43	2227	41401	1
43	2228	41401	1
43	2229	41401	1
43	2230	41401	1
43	2231	41401	1
43	2232	41401	1
43	2233	41401	1
43	2234	41401	1
43	2235	41401	1
43	2236	41401	1
43	2237	41401	1
43	2238	41401	1
43	2239	41401	1
43	2240	41401	1
43	2241	41401	1
43	2242	41401	1
43	2243	41401	1
43	2244	41401	1
43	2245	41401	1
43	2246	41401	1
43	2247	41401	1
43	2248	41401	1
43	2249	41401	1
43	2250	41401	1
43	2251	41401	1
43	2252	41401	1
43	2253	41401	1
43	2254	41401	1
43	2255	41401	1
43	2256	41401	1
43	2257	41401	1
43	2258	41401	1
43	2259	41401	1
43	2260	41401	1
43	2261	41401	1
43	2262	41401	1
43	2263	41401	1
43	2264	41401	1
43	2265	41401	1
43	2266	41401	1
43	2267	41401	1
43	2268	41401	1
43	3083	57601	1
43	3084	57601	1
43	3085	57601	1
43	3086	57601	1
43	3571	70201	1
43	3572	70201	1
44	134	5401	0
44	135	5401	0
44	1041	25201	0
44	1042	25201	0
44	1196	30601	0
44	1197	30601	0
44	1198	30601	0
44	1199	30601	0
44	1200	30601	0
44	1201	30601	0
44	1202	30601	0
44	2016	41401	0
44	2017	41401	0
44	2018	41401	0
44	2019	41401	0
44	2020	41401	0
44	2021	41401	0
44	2022	41401	0
44	2023	41401	0
44	2024	41401	1
44	2025	41401	2
44	2026	41401	3
44	2027	41401	4
44	2028	41401	5
44	2029	41401	6
44	2030	41401	7
44	2031	41401	8
44	2032	41401	9
44	2033	41401	10
44	2034	41401	11
44	2035	41401	12
44	2036	41401	13
44	2037	41401	14
44	2038	41401	15
44	2039	41401	16
44	2040	41401	17
44	2041	41401	18
44	2042	41401	19
44	2043	41401	20
44	2044	41401	21
44	2045	41401	22
44	2046	41401	23
44	2047	41401	24
44	2048	41401	25
44	2049	41401	26
44	2050	41401	27
44	2051	41401	28
44	2052	41401	29
44	2053	41401	30
44	2054	41401	31
44	2055	41401	32
44	2056	41401	33
44	2057	41401	34
44	2058	41401	35
44	2059	41401	36
44	2060	41401	37
44	2061	41401	38
44	2062	41401	39
44	2063	41401	40
44	2064	41401	41
44	2065	41401	42
44	2066	41401	43
44	2067	41401	44
44	2068	41401	45
44	2069	41401	46
44	2070	41401	47
44	2071	41401	48
44	2072	41401	49
44	2073	41401	50
44	2074	41401	51
44	2075	41401	52
44	2076	41401	53
44	2077	41401	54
44	2078	41401	55
44	2079	41401	56
44	2080	41401	57
44	2081	41401	58
44	2082	41401	59
44	2083	41401	60
44	2084	41401	61
44	2085	41401	62
44	2086	41401	63
44	2087	41401	64
44	2088	41401	65
44	2089	41401	66
44	2090	41401	67
44	2091	41401	68
44	2092	41401	69
44	2093	41401	70
44	2094	41401	71
44	2095	41401	72
44	2096	41401	73
44	2097	41401	74
44	2098	41401	75
44	2099	41401	76
44	2100	41401	77
44	2101	41401	78
44	2102	41401	79
44	2103	41401	80
44	2104	41401	81
44	2105	41401	82
44	2106	41401	83
44	2107	41401	84
44	2108	41401	85
44	2109	41401	86
44	2110	41401	87
44	2111	41401	88
44	2112	41401	89
44	2113	41401	90
44	2114	41401	91
44	2115	41401	92
44	2116	41401	93
44	2117	41401	94
44	2118	41401	95
44	2119	41401	96
44	2120	41401	97
44	2121	41401	98
44	2122	41401	99
44	2123	41401	100
44	2124	41401	101
44	2125	41401	102
44	2126	41401	103
44	2127	41401	104
44	2128	41401	105
44	2129	41401	106
44	2130	41401	107
44	2131	41401	108
44	2132	41401	109
44	2133	41401	110
44	2134	41401	111
44	2135	41401	112
44	2136	41401	113
44	2137	41401	114
44	2138	41401	115
44	2139	41401	116
44	2140	41401	117
44	2141	41401	118
44	2142	41401	119
44	2143	41401	120
44	2144	41401	121
44	2145	41401	122
44	2146	41401	123
44	2147	41401	124
44	2148	41401	125
44	2149	41401	126
44	2150	41401	127
44	2151	41401	128
44	2152	41401	129
44	2153	41401	130
44	2154	41401	131
44	2155	41401	132
44	2156	41401	133
44	2157	41401	134
44	2158	41401	135
44	2159	41401	136
44	2160	41401	137
44	2161	41401	138
44	2162	41401	139
44	2163	41401	140
44	2164	41401	141
44	2165	41401	142
44	2166	41401	143
44	2167	41401	144
44	2168	41401	145
44	2169	41401	146
44	2170	41401	147
44	2171	41401	148
44	2172	41401	149
44	2173	41401	150
44	2174	41401	151
44	2175	41401	152
44	2176	41401	153
44	2177	41401	154
44	2178	41401	155
44	2179	41401	156
44	2180	41401	157
44	2181	41401	158
44	2182	41401	159
44	2183	41401	160
44	2184	41401	161
44	2185	41401	162
44	2186	41401	163
44	2187	41401	164
44	2188	41401	165
44	2189	41401	166
44	2190	41401	167
44	2191	41401	168
44	2192	41401	169
44	2193	41401	170
44	2194	41401	171
44	2195	41401	172
44	2196	41401	173
44	2197	41401	174
44	2198	41401	175
44	2199	41401	176
44	2200	41401	177
44	2201	41401	178
44	2202	41401	179
44	2203	41401	180
44	2204	41401	181
44	2205	41401	182
44	2206	41401	183
44	2207	41401	184
44	2208	41401	185
44	2209	41401	186
44	2210	41401	187
44	2211	41401	188
44	2212	41401	189
44	2213	41401	190
44	2214	41401	191
44	2215	41401	192
44	2216	41401	193
44	2217	41401	194
44	2218	41401	195
44	2219	41401	196
44	2220	41401	197
44	2221	41401	198
44	2222	41401	199
44	2223	41401	200
44	2224	41401	201
44	2225	41401	202
44	2226	41401	203
44	2227	41401	204
44	2228	41401	205
44	2229	41401	206
44	2230	41401	207
44	2231	41401	208
44	2232	41401	209
44	2233	41401	210
44	2234	41401	211
44	2235	41401	212
44	2236	41401	213
44	2237	41401	214
44	2238	41401	215
44	2239	41401	216
44	2240	41401	217
44	2241	41401	218
44	2242	41401	219
44	2243	41401	220
44	2244	41401	221
44	2245	41401	222
44	2246	41401	223
44	2247	41401	224
44	2248	41401	225
44	2249	41401	226
44	2250	41401	227
44	2251	41401	228
44	2252	41401	229
44	2253	41401	230
44	2254	41401	231
44	2255	41401	232
44	2256	41401	233
44	2257	41401	234
44	2258	41401	235
44	2259	41401	236
44	2260	41401	237
44	2261	41401	238
44	2262	41401	239
44	2263	41401	240
44	2264	41401	241
44	2265	41401	242
44	2266	41401	243
44	2267	41401	244
44	2268	41401	245
44	3083	57601	245
44	3084	57601	245
44	3085	57601	245
44	3086	57601	245
44	3571	70201	245
44	3572	70201	245
45	139	5401	0
45	164	5401.000000128	0
45	675	14401	2
45	1046	25201	0
45	1071	25201.000000128	0
45	1206	30601	0
45	1231	30601.000000128	0
45	1256	30601.000000256	0
45	1281	30601.000000384	0
45	1306	30601.000000512	0
45	1331	30601.00000064	0
45	1356	30601.000000768	0
45	2272	41401	0
45	2297	41401.000000128	0
45	2322	41401.000000256	0
45	2347	41401.000000384	0
45	2372	41401.000000512	0
45	2397	41401.00000064	0
45	2422	41401.000000768	0
45	2447	41401.000000896	0
45	3090	57601	0
45	3115	57601.000000128	0
45	3140	57601.000000256	0
45	3165	57601.000000384	0
45	3260	61201	0
45	3261	61201	0
45	3262	61201	0
45	3465	68401	0
45	3466	68401	0
45	3467	68401	0
45	3468	68401	0
45	3469	68401	0
45	3576	70201	0
45	3601	70201.000000128	0
45	4076	77401	0
45	4077	77401	0
45	4365	84601	0
45	4366	84601	0
45	4367	84601	0
45	4368	84601	0
45	4369	84601	0
45	4370	84601	0
46	139	5401	0
46	164	5401.000000128	0
46	675	14401	8
46	1046	25201	0
46	1071	25201.000000128	0
46	1206	30601	0
46	1231	30601.000000128	0
46	1256	30601.000000256	0
46	1281	30601.000000384	0
46	1306	30601.000000512	0
46	1331	30601.00000064	0
46	1356	30601.000000768	0
46	2272	41401	0
46	2297	41401.000000128	0
46	2322	41401.000000256	0
46	2347	41401.000000384	0
46	2372	41401.000000512	0
46	2397	41401.00000064	0
46	2422	41401.000000768	0
46	2447	41401.000000896	0
46	3090	57601	0
46	3115	57601.000000128	0
46	3140	57601.000000256	0
46	3165	57601.000000384	0
46	3260	61201	0
46	3261	61201	0
46	3262	61201	0
46	3465	68401	0
46	3466	68401	0
46	3467	68401	0
46	3468	68401	0
46	3469	68401	0
46	3576	70201	0
46	3601	70201.000000128	0
46	4076	77401	0
46	4077	77401	0
46	4365	84601	0
46	4366	84601	0
46	4367	84601	0
46	4368	84601	0
46	4369	84601	0
46	4370	84601	0
47	139	5401	0
47	164	5401.000000128	0
47	675	14401	1
47	1046	25201	0
47	1071	25201.000000128	0
47	1206	30601	0
47	1231	30601.000000128	0
47	1256	30601.000000256	0
47	1281	30601.000000384	0
47	1306	30601.000000512	0
47	1331	30601.00000064	0
47	1356	30601.000000768	0
47	2272	41401	0
47	2297	41401.000000128	0
47	2322	41401.000000256	0
47	2347	41401.000000384	0
47	2372	41401.000000512	0
47	2397	41401.00000064	0
47	2422	41401.000000768	0
47	2447	41401.000000896	0
47	3090	57601	0
47	3115	57601.000000128	0
47	3140	57601.000000256	0
47	3165	57601.000000384	0
47	3260	61201	0
47	3261	61201	0
47	3262	61201	0
47	3465	68401	0
47	3466	68401	0
47	3467	68401	0
47	3468	68401	0
47	3469	68401	0
47	3576	70201	0
47	3601	70201.000000128	0
47	4076	77401	0
47	4077	77401	0
47	4365	84601	0
47	4366	84601	0
47	4367	84601	0
47	4368	84601	0
47	4369	84601	0
47	4370	84601	0
48	139	5401	0
48	164	5401.000000128	0
48	675	14401	1
48	1046	25201	0
48	1071	25201.000000128	0
48	1206	30601	0
48	1231	30601.000000128	0
48	1256	30601.000000256	0
48	1281	30601.000000384	0
48	1306	30601.000000512	0
48	1331	30601.00000064	0
48	1356	30601.000000768	0
48	2272	41401	0
48	2297	41401.000000128	0
48	2322	41401.000000256	0
48	2347	41401.000000384	0
48	2372	41401.000000512	0
48	2397	41401.00000064	0
48	2422	41401.000000768	0
48	2447	41401.000000896	0
48	3090	57601	0
48	3115	57601.000000128	0
48	3140	57601.000000256	0
48	3165	57601.000000384	0
48	3260	61201	1
48	3261	61201	1
48	3262	61201	1
48	3465	68401	1
48	3466	68401	1
48	3467	68401	1
48	3468	68401	1
48	3469	68401	1
48	3576	70201	0
48	3601	70201.000000128	0
48	4076	77401	1
48	4077	77401	1
48	4365	84601	1
48	4366	84601	1
48	4367	84601	1
48	4368	84601	1
48	4369	84601	1
48	4370	84601	1
49	139	5401	1
49	164	5401.000000128	1
49	675	14401	1
49	1046	25201	1
49	1071	25201.000000128	1
49	1206	30601	1
49	1231	30601.000000128	1
49	1256	30601.000000256	1
49	1281	30601.000000384	1
49	1306	30601.000000512	1
49	1331	30601.00000064	1
49	1356	30601.000000768	1
49	2272	41401	1
49	2297	41401.000000128	1
49	2322	41401.000000256	1
49	2347	41401.000000384	1
49	2372	41401.000000512	1
49	2397	41401.00000064	1
49	2422	41401.000000768	1
49	2447	41401.000000896	1
49	3090	57601	1
49	3115	57601.000000128	1
49	3140	57601.000000256	1
49	3165	57601.000000384	1
49	3260	61201	1
49	3261	61201	1
49	3262	61201	1
49	3465	68401	1
49	3466	68401	1
49	3467	68401	1
49	3468	68401	1
49	3469	68401	1
49	3576	70201	1
49	3601	70201.000000128	1
49	4076	77401	1
49	4077	77401	1
49	4365	84601	1
49	4366	84601	1
49	4367	84601	1
49	4368	84601	1
49	4369	84601	1
49	4370	84601	1
50	139	5401	0
50	164	5401.000000128	0
50	675	14401	0
50	1046	25201	0
50	1071	25201.000000128	0
50	1206	30601	0
50	1231	30601.000000128	0
50	1256	30601.000000256	0
50	1281	30601.000000384	0
50	1306	30601.000000512	0
50	1331	30601.00000064	0
50	1356	30601.000000768	0
50	2272	41401	0
50	2297	41401.000000128	0
50	2322	41401.000000256	0
50	2347	41401.000000384	0
50	2372	41401.000000512	0
50	2397	41401.00000064	0
50	2422	41401.000000768	0
50	2447	41401.000000896	0
50	3090	57601	0
50	3115	57601.000000128	0
50	3140	57601.000000256	0
50	3165	57601.000000384	0
50	3260	61201	0
50	3261	61201	0
50	3262	61201	0
50	3465	68401	0
50	3466	68401	0
50	3467	68401	0
50	3468	68401	0
50	3469	68401	0
50	3576	70201	0
50	3601	70201.000000128	0
50	4076	77401	0
50	4077	77401	0
50	4365	84601	0
50	4366	84601	0
50	4367	84601	0
50	4368	84601	0
50	4369	84601	0
50	4370	84601	0

